<?xml version="1.0" encoding="UTF-8"?>

<!-- generated on 2026-01-20T18:13:07.907757+05:45 by Eclipse SUMO sumo 1.25.0
-->

<sumoConfiguration xmlns:xsi="http://www.w3.org/2001/XMLSchema-instance" xsi:noNamespaceSchemaLocation="http://sumo.dlr.de/xsd/sumoConfiguration.xsd">

    <input>
        <net-file value="ujjwal.net.xml"/>
        <route-files value="ujjwal.rou.xml"/>
    </input>

</sumoConfiguration>
