<?xml version="1.0" encoding="UTF-8"?>

<!-- generated on 2026-01-20T18:13:01.227576+05:45 by Eclipse SUMO netedit 1.25.0
-->

<routes xmlns:xsi="http://www.w3.org/2001/XMLSchema-instance" xsi:noNamespaceSchemaLocation="http://sumo.dlr.de/xsd/routes_file.xsd">
    <!-- Vehicles, persons and containers (sorted by depart) -->
    <flow id="f_0" begin="0.00" end="3600.00" perHour="1800.00" from="E12" to="E14"/>
    <flow id="f_1" begin="0.00" end="3600.00" perHour="1800.00" from="-E15" to="-E12"/>
    <flow id="f_2" begin="0.00" end="3600.00" perHour="1800.00" from="-E14" to="E13"/>
    <flow id="f_3" begin="0.00" end="3600.00" perHour="1800.00" from="-E14" to="E15"/>
    <flow id="f_4" begin="0.00" end="3600.00" perHour="1800.00" from="E12" to="E13"/>
    <flow id="f_5" begin="0.00" end="3600.00" perHour="1800.00" from="-E15" to="E13"/>
</routes>
