<?xml version="1.0" encoding="UTF-8"?>

<!-- generated on 2025-12-30 17:52:28.455021 by Eclipse SUMO randomTrips.py v1_25_0+0000-ac6c5a6752d
<configuration>
    <net-file value="osm.net.xml.gz"/>
    <output-trip-file value="osm.passenger.trips.xml"/>
    <route-file value="osm.passenger.rou.xml"/>
    <prefix value="veh"/>
    <trip-attributes value="departLane=&quot;best&quot;"/>
    <fringe-start-attributes value="departSpeed=&quot;max&quot;"/>
    <vehicle-class value="passenger"/>
    <lanes value="True"/>
    <fringe-factor value="5"/>
    <allow-fringe.min-length value="1000.0"/>
    <edge-permission value="passenger"/>
    <via-edge-types value="highway.motorway,highway.motorway_link,highway.trunk_link,highway.primary_link,highway.secondary_link,highway.tertiary_link"/>
    <min-distance value="300.0"/>
    <min-distance.fringe value="10.0"/>
    <remove-loops value="True"/>
    <insertion-density value="12.0"/>
</configuration>
-->

<!-- generated on 2025-12-30T17:52:28.307401+05:45 by Eclipse SUMO duarouter 1.25.0
<duarouterConfiguration xmlns:xsi="http://www.w3.org/2001/XMLSchema-instance" xsi:noNamespaceSchemaLocation="http://sumo.dlr.de/xsd/duarouterConfiguration.xsd">

    <input>
        <net-file value="osm.net.xml.gz"/>
        <route-files value="osm.passenger.trips.xml"/>
    </input>

    <output>
        <output-file value="osm.passenger.rou.xml"/>
        <alternatives-output value="NUL"/>
    </output>

    <processing>
        <remove-loops value="true"/>
    </processing>

    <time>
        <begin value="0.0"/>
        <end value="3600.0"/>
    </time>

    <report>
        <no-warnings value="true"/>
        <ignore-errors value="true"/>
        <no-step-log value="true"/>
    </report>

</duarouterConfiguration>
-->

<routes xmlns:xsi="http://www.w3.org/2001/XMLSchema-instance" xsi:noNamespaceSchemaLocation="http://sumo.dlr.de/xsd/routes_file.xsd">
    <vType id="veh_passenger" vClass="passenger"/>
    <vehicle id="veh0" type="veh_passenger" depart="0.00" departLane="best">
        <route edges="-172338733 -516568704 -516563876 -184538884#3 -184538884#2 -184538884#1 -184538884#0 172008695#1 -351018906#7 -351018906#6 -351018906#5 -351018906#4 -351018906#3 -351018906#2 -351018906#1 -351018906#0 -351018899#1 351018901#1 136448419#0 136448419#1 136448418 137312035 -232351915#0 52799481#0 -161167914#2 -185946310 -61163734#2 -61163734#1 -61163734#0 -111845386#6 -111845386#5 -111845386#4 -111845386#3 -111845386#2"/>
    </vehicle>
    <vehicle id="veh1" type="veh_passenger" depart="6.35" departLane="best" departSpeed="max">
        <route edges="-225008693 -1126909410 -1053917530#2 -1053917530#1 -1053917530#0 184551693#0 184551693#1 184551693#2 500036285#1 500036285#2 232095615#1 172008702 172140337 170533896 28559206#1"/>
    </vehicle>
    <vehicle id="veh2" type="veh_passenger" depart="12.71" departLane="best">
        <route edges="185943172 -172348764#1 -172348764#0 111845386#2 111845386#3 111845386#4 111845386#5 111845386#6 111845386#7 61163734#1 61163734#2 185946310 161167914#2 52799481#1 52799481#2 52916461 231309040 351018899#1 351018906#0 351018906#1 351018906#2 351018906#3 351018906#4 351018906#5 351018906#6 351018906#7 344320085 1180134288 172140337 111845384 170533894 172126340 257416645#0 761154063#0 761154063#1 761154063#2 766166746#0 231882050"/>
    </vehicle>
    <vehicle id="veh3" type="veh_passenger" depart="19.06" departLane="best" departSpeed="max">
        <route edges="432541153 52736792#1 52736792#2 -705044617#3 -705044617#2 -705044617#1 -705044617#0 351018901#1 136448419#0 136448419#1 136448418 137312035 1448607961 -1448604737#1 -1448604737#0"/>
    </vehicle>
    <vehicle id="veh4" type="veh_passenger" depart="25.42" departLane="best">
        <route edges="-111845392#2 -111845392#1 -111845392#0 111845386#4 111845386#5 111845386#6 111845386#7 61163734#1 61163734#2 185946310 161167914#2 52799481#1 52799481#2 52916461 118505084 351018908#0-AddedOnRampEdge 351018908#0 351018908#1 351018908#2 351018908#3 171599262#4 171599262#5 672176869 -1198639191 -1198638170 -185939504#6 -185939504#5"/>
    </vehicle>
    <vehicle id="veh5" type="veh_passenger" depart="31.77" departLane="best">
        <route edges="172348764#0 1180579343 -203349706#0 111845386#3 111845386#4 111845386#5 111845386#6 111845386#7 61163734#1 61163734#2 185946310 161167914#2 52799481#1 52799481#2 52916461 231309040 705044617#0 705044617#1 705044617#2 705044617#3 357187035 508735685#1 508735685#2 357187039 -172495781#2 -172495781#1"/>
    </vehicle>
    <vehicle id="veh6" type="veh_passenger" depart="38.12" departLane="best" departSpeed="max">
        <route edges="324012356 61163795#1 -232351915#0 52799481#0 52799481#1 52799481#2 52916461 231309040 705044617#0 705044617#1 705044617#2 705044617#3 357187035 508735685#1 508735685#2 357187039 377972400#0 377972400#1 377972400#2 -1126909410 1053917530#3 -1053917531#3"/>
    </vehicle>
    <vehicle id="veh7" type="veh_passenger" depart="44.48" departLane="best">
        <route edges="300634296#3 171599262#2 169191889#0 169191889#1 231885715#0 231885715#1 231885715#2 231885715#3 231885715#3-AddedOffRampEdge 1074705226 351018901#1 136448419#0 136448419#1 136448418 137312035 232351915#1 232351915#2"/>
    </vehicle>
    <vehicle id="veh8" type="veh_passenger" depart="50.83" departLane="best">
        <route edges="-351018906#7 -351018906#6 -351018906#5 -351018906#4 -351018906#3 -351018906#2 -351018906#1 -351018906#0 -351018899#1 1074705227 351018908#0-AddedOnRampEdge 351018908#0 351018908#1 351018908#2 351018908#3 171599262#4 171599262#5 672176869 -1198639191 -1198638170 -185939504#6 -185939504#5 -185939504#4 -185939504#3 -185939504#2 -185939504#1 -185939504#0 -180204285#3 -180204285#2 180214607 -180210167"/>
    </vehicle>
    <vehicle id="veh9" type="veh_passenger" depart="57.19" departLane="best">
        <route edges="61163734#1 61163734#2 751465485#0 751465485#1 751465485#2"/>
    </vehicle>
    <vehicle id="veh10" type="veh_passenger" depart="63.54" departLane="best" departSpeed="max">
        <route edges="369713978 185939504#6 1198638170 1198639191 672176868 1442118982 171599262#0 171599262#1 171599262#2 169191889#0 169191889#1 231885715#0 231885715#1 231885715#2 231885715#3 231885715#3-AddedOffRampEdge 1074705226 705044617#0 705044617#1 705044617#2 -111846947#7 -111846947#6 -111846947#5 -111846947#3 -111846947#2 -111846947#1 -111846947#0 172338706 184538889#0 184538889#1"/>
    </vehicle>
    <vehicle id="veh11" type="veh_passenger" depart="69.89" departLane="best" departSpeed="max">
        <route edges="324012356 61163795#1 -232351915#0 52799481#0 52799481#1 52799481#2 52916461 118505084 351018908#0-AddedOnRampEdge 351018908#0 351018908#1 351018908#2 351018908#3 171599262#4 171599262#5 171599262#6 1442118982 171599262#0 171599262#1 -300634296#3 -300634296#2 -300634296#1 -300634296#0"/>
    </vehicle>
    <vehicle id="veh12" type="veh_passenger" depart="76.25" departLane="best">
        <route edges="111845386#2 111845386#3 111845386#4 111845386#5 111845386#6 111845386#7 61163734#1 61163734#2 751465485#0 751465485#1 751465485#2 751465485#3"/>
    </vehicle>
    <vehicle id="veh13" type="veh_passenger" depart="82.60" departLane="best">
        <route edges="-351018906#7 -351018906#6 -351018906#5 -351018906#4 -351018906#3 -351018906#2 -351018906#1 -351018906#0 -351018899#1 1074705227 351018908#0-AddedOnRampEdge 351018908#0 351018908#1 351018908#2 351018908#3 171599262#4 171599262#5 672176869 -1198639191 -1198638170 -185939504#6 -185939504#5 -185939504#4 -185939504#3 -185939504#2 -185939504#1"/>
    </vehicle>
    <vehicle id="veh14" type="veh_passenger" depart="88.96" departLane="best">
        <route edges="422263673 171599262#1 171599262#2 171599262#3 171599262#4 171599262#5 672176869 -1198639191 -1198638170 -185939504#6 -185939504#5 -112551792#4 -112551792#3 -112551792#2 -112551792#1 -169429814#1 -169429814#0 180214610#0 180214610#1 180214610#2"/>
    </vehicle>
    <vehicle id="veh15" type="veh_passenger" depart="95.31" departLane="best" departSpeed="max">
        <route edges="182802916 184551693#0 184551693#1 184551693#2 500036285#1 500036285#2 232095615#1 172008695#0 172008695#1 -351018906#7 -351018906#6 -351018906#5 -351018906#4 -351018906#3 -351018906#2 -351018906#1 -351018906#0 -351018899#1 1074705227 351018908#0-AddedOnRampEdge 351018908#0 351018908#1 231885715#1 -111985604#2 -111985604#1"/>
    </vehicle>
    <vehicle id="veh16" type="veh_passenger" depart="101.66" departLane="best">
        <route edges="-184538884#3 -184538884#2 -184538884#1 -184538884#0 172008695#1 -351018906#7 -351018906#6 -351018906#5 -351018906#4 -351018906#3 -351018906#2 -351018906#1 -351018906#0 -351018899#1 705044617#0 705044617#1 705044617#2 705044617#3 -52736792#2 -52736792#1 -52736792#0"/>
    </vehicle>
    <vehicle id="veh17" type="veh_passenger" depart="108.02" departLane="best" departSpeed="max">
        <route edges="-1305159249 1093502347#6 -172348620#1 -172348620#0 -52990105#0 52991231#1 52991231#2 52991231#3 61163734#2 751465485#0 61163795#0 -324012356"/>
    </vehicle>
    <vehicle id="veh18" type="veh_passenger" depart="114.37" departLane="best" departSpeed="max">
        <route edges="-134726868 134726880#0 134726880#1 -751465485#1 61163795#0 61163795#1 -232351915#0 52799481#0 52799481#1 52799481#2 52916461 231309040 705044617#0 705044617#1 705044617#2 705044617#3 357187035 508735685#1 508735685#2 357187039 377972400#0 -516104230"/>
    </vehicle>
    <vehicle id="veh19" type="veh_passenger" depart="120.73" departLane="best" departSpeed="max">
        <route edges="172338730 -172338714#0 -172338710 -377972400#2 -377972400#1 -377972400#0 -357187039 -508735685#2 -508735685#1 -508735685#0 -705044617#3 -705044617#2 -705044617#1 -705044617#0 351018901#1 136448419#0 136448419#1 136448418 137312035 -232351915#0 52799481#0 -161167914#2 -161167914#1 -161167914#0 52990105#0 172348620#0 172348620#1 1093502347#8"/>
    </vehicle>
    <vehicle id="veh20" type="veh_passenger" depart="127.08" departLane="best" departSpeed="max">
        <route edges="-513528476 -508735685#2 -508735685#1 -508735685#0 -705044617#3 -705044617#2 -705044617#1 -705044617#0 351018901#1 136448419#0 136448419#1 136448418 137312035"/>
    </vehicle>
    <vehicle id="veh21" type="veh_passenger" depart="133.43" departLane="best">
        <route edges="185946310 161167914#2 52799481#1 52799481#2 52916461 118505084 351018908#0-AddedOnRampEdge 351018908#0 351018908#1 351018908#2 351018908#3 171599262#4 171599262#5 672176869 672176868"/>
    </vehicle>
    <vehicle id="veh22" type="veh_passenger" depart="139.79" departLane="best">
        <route edges="-172348643#1 -172348643#0 -111845392#4 -111845392#3 -111845392#2 -111845392#1 -111845392#0 111845386#4 111845386#5 111845386#6 111845386#7 61163734#1 61163734#2 185946310 161167914#2 52799481#1 52799481#2 52916461 231309040 351018899#1 351018906#0 351018906#1 351018906#2 351018906#3 351018906#4 351018906#5 351018906#6 351018906#7 344320085 1180134288 172140337 111845384 170533894 172126340 184551692#0 184551692#1"/>
    </vehicle>
    <vehicle id="veh23" type="veh_passenger" depart="146.14" departLane="best" departSpeed="max">
        <route edges="-172348764#3 -172348764#2 -172348764#1 -172348764#0 111845386#2 111845386#3 111845386#4 111845386#5 111845386#6 111845386#7 61163734#1 61163734#2 185946310 161167914#2 52799481#1 52799481#2 52916461 231309040 351018899#1 351018906#0 351018906#1 351018906#2 351018906#3 351018906#4 351018906#5 351018906#6 351018906#7 344320085 1180134288 172140337 170533896 28559206#1 28559206#2 28559206#3 28559206#4"/>
    </vehicle>
    <vehicle id="veh24" type="veh_passenger" depart="152.50" departLane="best">
        <route edges="754991649 -754991648 -650461419#2 -650461419#1 231885715#1 231885715#2 231885715#3 231885715#3-AddedOffRampEdge 173044649 351018906#0 351018906#1 351018906#2 351018906#3 351018906#4 351018906#5 351018906#6 351018906#7 344320085 1180134288 198993948#0 198993948#1 193705376#1"/>
    </vehicle>
    <vehicle id="veh25" type="veh_passenger" depart="158.85" departLane="best">
        <route edges="-111846947#7 -184538887#1 -244363841 754991649 -754991648 -650461419#2 -650461419#1 231885715#1 231885715#2 231885715#3"/>
    </vehicle>
    <vehicle id="veh26" type="veh_passenger" depart="165.20" departLane="best">
        <route edges="-508735685#0 -705044617#3 -111846947#7 -184538887#1 -244363841 754991649 -754991648 -704803137#2 -704803137#1 -704803137#0 704121285 704121284#0 112551794#1 112551794#2 112551794#3 793370983 422040188#0"/>
    </vehicle>
    <vehicle id="veh27" type="veh_passenger" depart="171.56" departLane="best">
        <route edges="-184538887#1 -244363841 754991649 -754991648 -704803137#2 -704803137#1 -704803137#0 704121285 704121284#0 -112551794#0 136617990 136617985#1 111845392#0 111845392#1 111845392#2 111845392#3"/>
    </vehicle>
    <vehicle id="veh28" type="veh_passenger" depart="177.91" departLane="best">
        <route edges="-28559206#4 -28559206#3 -28559206#2 -28559206#1 1073374844 170533894 111845390 172008695#0 172008695#1 -351018906#7 -351018906#6 -351018906#5 -351018906#4 -351018906#3 -351018906#2 -351018906#1 -351018906#0 -351018899#1 351018901#1 136448419#0 136448419#1 136448418 137312035 -232351915#0 52799481#0 -161167914#2 -161167914#1 -161167914#0 -52991231#0 448594622#0 448594622#1"/>
    </vehicle>
    <vehicle id="veh29" type="veh_passenger" depart="184.27" departLane="best" departSpeed="max">
        <route edges="-180214610#3 -180214610#2 -180214610#1 -180214610#0 169429814#0 169429814#1 112551792#0 112551792#2 112551792#3 112551792#4 185939504#5 185939504#6 1198638170 1198639191 672176868 1442118982 171599262#0 171599262#1 171599262#2 169191889#0 169191889#1 231885715#0 231885715#1 231885715#2 231885715#3 231885715#3-AddedOffRampEdge 173044649 351018906#0 351018906#1 351018906#2 351018906#3 694762473#1 694762473#2"/>
    </vehicle>
    <vehicle id="veh30" type="veh_passenger" depart="190.62" departLane="best" departSpeed="max">
        <route edges="422272357 422263673 171599262#1 171599262#2 169191889#0 169191889#1 231885715#0 650461419#1"/>
    </vehicle>
    <vehicle id="veh31" type="veh_passenger" depart="196.97" departLane="best" departSpeed="max">
        <route edges="172495781#0 -184538888 -516563876 -184538884#3 -184538884#2 -184538884#1 -184538884#0 172008695#1 -351018906#7 -351018906#6 -351018906#5 -351018906#4 -351018906#3 -351018906#2 -351018906#1 -351018906#0 -351018899#1 1074705227 351018908#0-AddedOnRampEdge 351018908#0 351018908#1 351018908#2 351018908#3 171599262#4 171599262#5 672176869 -1198639191 -1198638170 -185939504#6 -185939504#5 -112551792#4 -112551792#3 -112551792#2"/>
    </vehicle>
    <vehicle id="veh32" type="veh_passenger" depart="203.33" departLane="best">
        <route edges="513530027#1 513530027#2 513530027#3 -357187038#0 -508735685#2 -508735685#1 -508735685#0 -705044617#3 -705044617#2 -705044617#1 -705044617#0 351018901#1 136448419#0 136448419#1"/>
    </vehicle>
    <vehicle id="veh33" type="veh_passenger" depart="209.68" departLane="best">
        <route edges="-185943157 -172348643#1 -172348643#0 -111845392#4 -111845392#3 -111845392#2 -111845392#1 -111845392#0 111845386#4 111845386#5 111845386#6 111845386#7 61163734#1 61163734#2 185946310 161167914#2 52799481#1 52799481#2 52916461 231309040 351018899#1 351018906#0 351018906#1 351018906#2 351018906#3 351018906#4 351018906#5"/>
    </vehicle>
    <vehicle id="veh34" type="veh_passenger" depart="216.04" departLane="best" departSpeed="max">
        <route edges="112117501 169429814#0 169429814#1 112551792#0 112551792#2 112551792#3 112551792#4 185939504#5 185939504#6 1198638170 1198639191 672176868 1442118982 171599262#0 171599262#1 171599262#2 169191889#0 169191889#1 231885715#0 231885715#1 231885715#2 231885715#3 231885715#3-AddedOffRampEdge 1074705226 705044617#0 705044617#1 705044617#2 705044617#3 357187035 508735685#1 508735685#2 357187039 377972400#0 377972400#1 377972400#2 -1126909410 -1053917530#2 -1053917530#1 -432541152"/>
    </vehicle>
    <vehicle id="veh35" type="veh_passenger" depart="222.39" departLane="best" departSpeed="max">
        <route edges="-521751675 -180214610#2 -180214610#1 -180214610#0 169429814#0 169429814#1 112551792#0 112551792#2 112551792#3 112551792#4 185939504#5 185939504#6 172338732 704121285 704121284#0 -112551794#0 136617990 136617985#1 111845386#4 111845386#5 111845386#6 111845386#7 61163734#1 61163734#2 751465485#0 751465485#1 751465485#2 -244107734"/>
    </vehicle>
    <vehicle id="veh36" type="veh_passenger" depart="228.74" departLane="best">
        <route edges="904058270 546898504 -1171547833 111846947#1 111846947#2 111846947#3 111846947#5 111846947#6 111846947#7 -705044617#2 -705044617#1 -705044617#0 351018901#1 136448419#0 136448419#1 136448418 137312035 -232351915#0 52799481#0 -161167914#2 -185946310 -61163734#2 -61163734#1 -61163734#0 -111845386#6 -111845386#5 -111845386#4 111845392#0 111845392#1 111845392#2 111845392#3 111845392#4 172348643#0"/>
    </vehicle>
    <vehicle id="veh37" type="veh_passenger" depart="235.10" departLane="best" departSpeed="max">
        <route edges="-1305159251 52993394#2 52993394#3 -52990105#2 -52990105#1 -52990105#0 161167914#0 161167914#1 161167914#2 52799481#1 52799481#2 52916461 118505084 351018908#0-AddedOnRampEdge 351018908#0 351018908#1 231885715#1 -111985604#2"/>
    </vehicle>
    <vehicle id="veh38" type="veh_passenger" depart="241.45" departLane="best" departSpeed="max">
        <route edges="-1448604737#2 -1448604738 -1448605386 -232351915#0 52799481#0 52799481#1 52799481#2 52916461 118505084 351018908#0-AddedOnRampEdge 351018908#0 351018908#1 351018908#2 351018908#3 171599262#4 171599262#5 672176869 -1198639191 -1198638170 -185939504#6"/>
    </vehicle>
    <vehicle id="veh39" type="veh_passenger" depart="247.81" departLane="best" departSpeed="max">
        <route edges="244107734 -751465485#2 -751465485#1 61163795#0 61163795#1 -232351915#0 52799481#0 52799481#1 52799481#2 52916461 118505084 351018908#0-AddedOnRampEdge 351018908#0 351018908#1 351018908#2 351018908#3 171599262#4 171599262#5 171599262#6 1442118982 171599262#0 171599262#1 -300634296#3 111985604#0 1300402442"/>
    </vehicle>
    <vehicle id="veh40" type="veh_passenger" depart="254.16" departLane="best">
        <route edges="-1198639191 172333259 -704803137#0 704121285 704121284#0 -112551794#0 136617990 136617985#1 111845392#0 111845392#1 111845392#2 111845392#3 111845392#4 111845392#5 111845392#6"/>
    </vehicle>
    <vehicle id="veh41" type="veh_passenger" depart="260.52" departLane="best" departSpeed="max">
        <route edges="690729663 422040188#2 422040188#3 185939504#2 185939504#3 185939504#4 185939504#5 185939504#6 1198638170 1198639191 672176868 1442118982 171599262#0 171599262#1 171599262#2 169191889#0 169191889#1 231885715#0 231885715#1 231885715#2 231885715#3 231885715#3-AddedOffRampEdge 1074705226 705044617#0 705044617#1 705044617#2 705044617#3 357187035 508735685#1 508735685#2 357187038#0 357187038#1 -513530027#2 -513530027#1 516565941"/>
    </vehicle>
    <vehicle id="veh42" type="veh_passenger" depart="266.87" departLane="best" departSpeed="max">
        <route edges="180204285#0 180204285#1 180204285#2 180204285#3 -185943149#1 -185943149#0 -112551794#5 -112551794#4 -112551794#3 -112551794#2 -112551794#1 -112551794#0 136617990 136617985#1 -111845386#3 -111845386#2 172348764#0 172348764#1 172348764#2"/>
    </vehicle>
    <vehicle id="veh43" type="veh_passenger" depart="273.22" departLane="best">
        <route edges="185946310 161167914#2 52799481#1 52799481#2 52916461 231309040 351018899#1 351018906#0 351018906#1 351018906#2 351018906#3 351018906#4 351018906#5 351018906#6 351018906#7 344320085 1180134288 198993948#0 198993948#1 193705376#1"/>
    </vehicle>
    <vehicle id="veh44" type="veh_passenger" depart="279.58" departLane="best">
        <route edges="-1448604738 -1448605386 -232351915#0 52799481#0 -161167914#2 -161167914#1 -161167914#0 52990105#0 172348620#0 -172348769#1 1305159250"/>
    </vehicle>
    <vehicle id="veh45" type="veh_passenger" depart="285.93" departLane="best">
        <route edges="-650461419#3 -650461419#2 -650461419#1 351018908#2 351018908#3 171599262#4 171599262#5 171599262#6 1442118982 422276296 422263674#0 422263674#1 422264265 180205113 696492537#1"/>
    </vehicle>
    <vehicle id="veh46" type="veh_passenger" depart="292.29" departLane="best" departSpeed="max">
        <route edges="422272357 422263673 171599262#1 171599262#2 169191889#0 169191889#1 231885715#0 231885715#1 231885715#2 231885715#3 231885715#3-AddedOffRampEdge 1074705226 705044617#0 705044617#1 705044617#2 705044617#3 357187035 508735685#1 508735685#2 357187039 377972400#0 377972400#1 377972400#2 -1126909410 -1053917530#2 -1053917530#1 -432541152"/>
    </vehicle>
    <vehicle id="veh47" type="veh_passenger" depart="298.64" departLane="best">
        <route edges="-96906941#1 185943172 -172348764#1 -172348764#0 111845386#2 111845386#3 111845386#4 111845386#5 111845386#6 111845386#7 61163734#1 61163734#2 185946310 161167914#2 52799481#1 52799481#2 52916461 231309040 705044617#0 705044617#1 705044617#2 705044617#3 357187035 508735685#1 508735685#2 357187038#0 357187038#1 -513530027#2 -513530027#1 -513530027#0 -516568704 -516563876 -184538884#3 -184538884#2"/>
    </vehicle>
    <vehicle id="veh48" type="veh_passenger" depart="304.99" departLane="best">
        <route edges="508735685#1 508735685#2 357187038#0 357187038#1 -513530027#2 -513530027#1 -513530027#0 -516568704 -516563876 -184538884#3 -184538884#2 -184538884#1 -184538884#0 172008695#1 -351018906#7 -351018906#6 -351018906#5 -351018906#4 -351018906#3 -351018906#2 -351018906#1 -351018906#0 -351018899#1 1074705227 351018908#0-AddedOnRampEdge 351018908#0 351018908#1 351018908#2 351018908#3 171599262#4 171599262#5 672176869 -1198639191 -1198638170 -185939504#6 -185939504#5 -112551792#4 -112551792#3 -112551792#2 -112551792#1 -169429814#1 -169429814#0 180214610#0 180214610#1 180214610#2 521751675"/>
    </vehicle>
    <vehicle id="veh49" type="veh_passenger" depart="311.35" departLane="best" departSpeed="max">
        <route edges="-232429764#1 -232429764#0 -232351915#2 -232351915#1 -232351915#0 52799481#0 52799481#1 52799481#2 52916461 231309040 351018899#1 351018906#0 351018906#1 351018906#2 351018906#3 351018906#4 351018906#5 351018906#6 351018906#7 344320085 1180134288 198993948#0 198993948#1 193705376#1"/>
    </vehicle>
    <vehicle id="veh50" type="veh_passenger" depart="317.70" departLane="best" departSpeed="max">
        <route edges="1448604737#0 1448604737#1 -1448607961 -232351915#0 52799481#0 -161167914#2 -185946310 -61163734#2 -61163734#1 -61163734#0 -111845386#6 -111845386#5 -111845386#4 -136617985#1 -136617985#0 112551794#0 112551794#1 112551794#2 112551794#3 112551794#4 112551794#5 185943149#0 185943149#1 -180204285#3 -180204285#2 180214607 -180210167"/>
    </vehicle>
    <vehicle id="veh51" type="veh_passenger" depart="324.06" departLane="best">
        <route edges="231885715#3 231885715#3-AddedOffRampEdge 1074705226 351018901#1 136448419#0 136448419#1 136448418 137312035 -232351915#0 52799481#0 -161167914#2 -185946310 -61163734#2 -61163734#1 -61163734#0 -111845386#6 -111845386#5 -111845386#4 -111845386#3 -111845386#2 172348764#0 172348764#1 172348764#2 172348764#3"/>
    </vehicle>
    <vehicle id="veh52" type="veh_passenger" depart="330.41" departLane="best">
        <route edges="232095615#0 232095615#1 172008695#0 172008695#1 -351018906#7 -351018906#6 -351018906#5 -351018906#4 -351018906#3 -351018906#2 -351018906#1 -351018906#0 -351018899#1 351018901#1 136448419#0 136448419#1 136448418 137312035 -232351915#0 52799481#0 -161167914#2 -185946310 -61163734#2 -61163734#1 -61163734#0 -111845386#6 -111845386#5 -111845386#4 111845392#0 111845392#1 111845392#2 111845392#3 111845392#4 111845392#5 172348717"/>
    </vehicle>
    <vehicle id="veh53" type="veh_passenger" depart="336.76" departLane="best">
        <route edges="-1053917530#0 184551693#0 184551693#1 184551693#2 500036285#1 500036285#2 232095615#1 172008695#0 172008695#1 -351018906#7 -351018906#6 -351018906#5 -351018906#4 -351018906#3 -351018906#2 -351018906#1 -351018906#0 -351018899#1 1074705227 351018908#0-AddedOnRampEdge 351018908#0 351018908#1 351018908#2 351018908#3 171599262#4 171599262#5 171599262#6 1442118982 422276296 422263674#0 422263674#1 422264265 180205113 -696492537#0"/>
    </vehicle>
    <vehicle id="veh54" type="veh_passenger" depart="343.12" departLane="best" departSpeed="max">
        <route edges="-111845385 1093502347#1 1093502347#3 1093502347#4 1093502347#6 -172348620#1 -172348620#0 221344970#0 643296240"/>
    </vehicle>
    <vehicle id="veh55" type="veh_passenger" depart="349.47" departLane="best" departSpeed="max">
        <route edges="422272357 422263673 171599262#1 171599262#2 169191889#0 169191889#1 231885715#0 231885715#1 231885715#2 231885715#3 231885715#3-AddedOffRampEdge 173044649 351018906#0 351018906#1 351018906#2 351018906#3 351018906#4 351018906#5 351018906#6 351018906#7 344320085 1180134288 172140337 111845384 170533894 172126340 257416645#0 761154063#0 761154063#1 761154063#2 766166746#0 766166746#1 766166746#2 500036285#1 500036285#2"/>
    </vehicle>
    <vehicle id="veh56" type="veh_passenger" depart="355.83" departLane="best" departSpeed="max">
        <route edges="422272357 422263673 171599262#1 171599262#2 169191889#0 169191889#1 231885715#0 231885715#1 231885715#2 231885715#3 231885715#3-AddedOffRampEdge 1074705226 705044617#0 705044617#1 705044617#2 705044617#3 357187035 508735685#1 508735685#2 357187039 377972400#0 377972400#1 694762534"/>
    </vehicle>
    <vehicle id="veh57" type="veh_passenger" depart="362.18" departLane="best" departSpeed="max">
        <route edges="-1305159250 172348769#1 -172348620#0 -52990105#0 161167914#0 161167914#1 161167914#2 52799481#1 52799481#2 52916461 231309040 351018899#1 351018906#0 351018906#1 351018906#2 351018906#3 351018906#4 351018906#5 351018906#6 351018906#7 344320085 1180134288 172140337 111845384 170533894 172126340"/>
    </vehicle>
    <vehicle id="veh58" type="veh_passenger" depart="368.53" departLane="best">
        <route edges="-705044617#3 -705044617#2 -705044617#1 -705044617#0 351018901#1 136448419#0 136448419#1 136448418 137312035 -232351915#0 52799481#0 52799481#1 52799481#2 52916461 231309040 351018899#1 351018906#0 351018906#1 351018906#2 351018906#3 351018906#4 351018906#5 351018906#6 351018906#7 344320085 1180134288 172140337 170533896 173044198#0 173044198#1"/>
    </vehicle>
    <vehicle id="veh59" type="veh_passenger" depart="374.89" departLane="best">
        <route edges="-185943157 -172348643#1 -172348643#0 -111845392#4 -111845392#3 -111845392#2 -111845392#1 -111845392#0 -136617985#1 -136617985#0 112551794#0 112551794#1 112551794#2 112551794#3 793370983 422040188#0 422040188#1 422040188#2 422040188#3 185939504#2 185939504#3 185939504#4 -112551792#4 -112551792#3 -112551792#2 -112551792#1 -169429814#1 -169429814#0 180214610#0 180214610#1 180214610#2 521751675"/>
    </vehicle>
    <vehicle id="veh60" type="veh_passenger" depart="381.24" departLane="best">
        <route edges="111845386#6 111845386#7 61163734#1 61163734#2 185946310 161167914#2 52799481#1 52799481#2 52916461 118505084 351018908#0-AddedOnRampEdge 351018908#0 351018908#1 351018908#2 351018908#3 171599262#4 171599262#5 171599262#6 1442118982 171599262#0 171599262#1 -300634296#3 -300634296#2 -300634296#1 -300634296#0"/>
    </vehicle>
    <vehicle id="veh61" type="veh_passenger" depart="387.60" departLane="best" departSpeed="max">
        <route edges="-180214604 -180214610#1 -180214610#0 169429814#0 169429814#1 112551792#0 112551792#2 112551792#3 112551792#4 185939504#5 185939504#6 172338732 704121285 704121284#0 -112551794#0 136617990 136617985#1 111845386#4 111845386#5 111845386#6 111845386#7"/>
    </vehicle>
    <vehicle id="veh62" type="veh_passenger" depart="393.95" departLane="best">
        <route edges="766166746#2 500036285#1 500036285#2 232095615#1 172008695#0 172008695#1 -351018906#7 -351018906#6 -351018906#5 -351018906#4 -351018906#3 -351018906#2 -351018906#1 -351018906#0 -351018899#1 351018901#1 136448419#0 136448419#1 136448418 137312035 -232351915#0 52799481#0 -161167914#2 -161167914#1 -161167914#0 52990105#0 221344970#0 221344970#1"/>
    </vehicle>
    <vehicle id="veh63" type="veh_passenger" depart="400.30" departLane="best">
        <route edges="-52993394#3 172348769#0 172348769#1 -172348620#0 -52990105#0 -52991231#0 448594622#0 448594622#1 172348677"/>
    </vehicle>
    <vehicle id="veh64" type="veh_passenger" depart="406.66" departLane="best">
        <route edges="-172338710 -1126909410 -1053917530#2 -1053917530#1 -1053917530#0 184551693#0 184551693#1 184551693#2 500036285#1 500036285#2 232095615#1 172008702 172140337 170533896 28559206#1 28559206#2 28559206#3"/>
    </vehicle>
    <vehicle id="veh65" type="veh_passenger" depart="413.01" departLane="best">
        <route edges="-351018906#6 -351018906#5 -351018906#4 -351018906#3 -351018906#2 -351018906#1 -351018906#0 -351018899#1 705044617#0 705044617#1 705044617#2 -111846947#7 -111846947#6 -111846947#5 -111846947#3 -111846947#2 -111846947#1 432541157 -546898504 183110570"/>
    </vehicle>
    <vehicle id="veh66" type="veh_passenger" depart="419.37" departLane="best">
        <route edges="-184538888 -516563876 -184538884#3 -184538884#2 -184538884#1 -184538884#0 172008695#1 -351018906#7 -351018906#6 -351018906#5 -351018906#4 -351018906#3 -351018906#2 -351018906#1 -351018906#0 -351018899#1 351018901#1 136448419#0 136448419#1 136448418 137312035 -232351915#0 52799481#0 -161167914#2 -185946310 751465485#0 751465485#1 751465485#2 -244107734"/>
    </vehicle>
    <vehicle id="veh67" type="veh_passenger" depart="425.72" departLane="best" departSpeed="max">