<?xml version="1.0" encoding="UTF-8"?>

<!-- generated on 2025-12-30 17:52:28.017357 by Eclipse SUMO randomTrips.py v1_25_0+0000-ac6c5a6752d
<configuration>
    <net-file value="osm.net.xml.gz"/>
    <output-trip-file value="osm.passenger.trips.xml"/>
    <route-file value="osm.passenger.rou.xml"/>
    <prefix value="veh"/>
    <trip-attributes value="departLane=&quot;best&quot;"/>
    <fringe-start-attributes value="departSpeed=&quot;max&quot;"/>
    <vehicle-class value="passenger"/>
    <lanes value="True"/>
    <fringe-factor value="5"/>
    <allow-fringe.min-length value="1000.0"/>
    <edge-permission value="passenger"/>
    <via-edge-types value="highway.motorway,highway.motorway_link,highway.trunk_link,highway.primary_link,highway.secondary_link,highway.tertiary_link"/>
    <min-distance value="300.0"/>
    <min-distance.fringe value="10.0"/>
    <remove-loops value="True"/>
    <insertion-density value="12.0"/>
</configuration>
-->

<routes xmlns:xsi="http://www.w3.org/2001/XMLSchema-instance" xsi:noNamespaceSchemaLocation="http://sumo.dlr.de/xsd/routes_file.xsd">
    <vType id="veh_passenger" vClass="passenger"/>
    <trip id="veh0" depart="0.00" from="172338733" to="-111845386#2" departLane="best" type="veh_passenger"/>
    <trip id="veh1" depart="6.35" from="-225008693" to="-28559206#1" departLane="best" type="veh_passenger" departSpeed="max"/>
    <trip id="veh2" depart="12.71" from="185943172" to="231882050" departLane="best" type="veh_passenger"/>
    <trip id="veh3" depart="19.06" from="432541153" to="-1448604737#0" departLane="best" type="veh_passenger" departSpeed="max"/>
    <trip id="veh4" depart="25.42" from="-111845392#2" to="-185939504#5" departLane="best" type="veh_passenger"/>
    <trip id="veh5" depart="31.77" from="172348764#0" to="172495781#1" departLane="best" type="veh_passenger"/>
    <trip id="veh6" depart="38.12" from="324012356" to="-1053917531#3" departLane="best" type="veh_passenger" departSpeed="max"/>
    <trip id="veh7" depart="44.48" from="300634296#3" to="232351915#2" departLane="best" type="veh_passenger"/>
    <trip id="veh8" depart="50.83" from="-351018906#7" to="-180210167" departLane="best" type="veh_passenger"/>
    <trip id="veh9" depart="57.19" from="61163734#1" to="-751465485#2" departLane="best" type="veh_passenger"/>
    <trip id="veh10" depart="63.54" from="369713978" to="184538889#1" departLane="best" type="veh_passenger" departSpeed="max"/>
    <trip id="veh11" depart="69.89" from="324012356" to="300634296#0" departLane="best" type="veh_passenger" departSpeed="max"/>
    <trip id="veh12" depart="76.25" from="111845386#2" to="751465485#3" departLane="best" type="veh_passenger"/>
    <trip id="veh13" depart="82.60" from="351018906#7" to="185939504#1" departLane="best" type="veh_passenger"/>
    <trip id="veh14" depart="88.96" from="422263673" to="180214610#2" departLane="best" type="veh_passenger"/>
    <trip id="veh15" depart="95.31" from="182802916" to="-111985604#1" departLane="best" type="veh_passenger" departSpeed="max"/>
    <trip id="veh16" depart="101.66" from="-184538884#3" to="-52736792#0" departLane="best" type="veh_passenger"/>
    <trip id="veh17" depart="108.02" from="-1305159249" to="-324012356" departLane="best" type="veh_passenger" departSpeed="max"/>
    <trip id="veh18" depart="114.37" from="-134726868" to="-516104230" departLane="best" type="veh_passenger" departSpeed="max"/>
    <trip id="veh19" depart="120.73" from="172338730" to="1093502347#8" departLane="best" type="veh_passenger" departSpeed="max"/>
    <trip id="veh20" depart="127.08" from="-513528476" to="-232351915#0" departLane="best" type="veh_passenger" departSpeed="max"/>
    <trip id="veh21" depart="133.43" from="-185946310" to="672176868" departLane="best" type="veh_passenger"/>
    <trip id="veh22" depart="139.79" from="172348643#1" to="184551692#1" departLane="best" type="veh_passenger"/>
    <trip id="veh23" depart="146.14" from="-172348764#3" to="28559206#4" departLane="best" type="veh_passenger" departSpeed="max"/>
    <trip id="veh24" depart="152.50" from="754991649" to="193705376#1" departLane="best" type="veh_passenger"/>
    <trip id="veh25" depart="158.85" from="111846947#7" to="231885715#3" departLane="best" type="veh_passenger"/>
    <trip id="veh26" depart="165.20" from="357187035" to="422040188#0" departLane="best" type="veh_passenger"/>
    <trip id="veh27" depart="171.56" from="-184538887#1" to="-111845392#3" departLane="best" type="veh_passenger"/>
    <trip id="veh28" depart="177.91" from="-28559206#4" to="-448594622#1" departLane="best" type="veh_passenger"/>
    <trip id="veh29" depart="184.27" from="-180214610#3" to="694762473#2" departLane="best" type="veh_passenger" departSpeed="max"/>
    <trip id="veh30" depart="190.62" from="422272357" to="-650461419#1" departLane="best" type="veh_passenger" departSpeed="max"/>
    <trip id="veh31" depart="196.97" from="172495781#0" to="112551792#2" departLane="best" type="veh_passenger" departSpeed="max"/>
    <trip id="veh32" depart="203.33" from="513530027#1" to="136448419#1" departLane="best" type="veh_passenger"/>
    <trip id="veh33" depart="209.68" from="-185943157" to="-351018906#5" departLane="best" type="veh_passenger"/>
    <trip id="veh34" depart="216.04" from="112117501" to="-432541152" departLane="best" type="veh_passenger" departSpeed="max"/>
    <trip id="veh35" depart="222.39" from="-521751675" to="-244107734" departLane="best" type="veh_passenger" departSpeed="max"/>
    <trip id="veh36" depart="228.74" from="904058270" to="172348643#0" departLane="best" type="veh_passenger"/>
    <trip id="veh37" depart="235.10" from="-1305159251" to="-111985604#2" departLane="best" type="veh_passenger" departSpeed="max"/>
    <trip id="veh38" depart="241.45" from="-1448604737#2" to="185939504#6" departLane="best" type="veh_passenger" departSpeed="max"/>
    <trip id="veh39" depart="247.81" from="244107734" to="1300402442" departLane="best" type="veh_passenger" departSpeed="max"/>
    <trip id="veh40" depart="254.16" from="-1198639191" to="111845392#6" departLane="best" type="veh_passenger"/>
    <trip id="veh41" depart="260.52" from="690729663" to="516565941" departLane="best" type="veh_passenger" departSpeed="max"/>
    <trip id="veh42" depart="266.87" from="180204285#0" to="172348764#2" departLane="best" type="veh_passenger" departSpeed="max"/>
    <trip id="veh43" depart="273.22" from="-185946310" to="193705376#1" departLane="best" type="veh_passenger"/>
    <trip id="veh44" depart="279.58" from="-1448604738" to="1305159250" departLane="best" type="veh_passenger"/>
    <trip id="veh45" depart="285.93" from="-650461419#3" to="696492537#1" departLane="best" type="veh_passenger"/>
    <trip id="veh46" depart="292.29" from="422272357" to="-432541152" departLane="best" type="veh_passenger" departSpeed="max"/>
    <trip id="veh47" depart="298.64" from="-96906941#1" to="-184538884#2" departLane="best" type="veh_passenger"/>
    <trip id="veh48" depart="304.99" from="508735685#1" to="521751675" departLane="best" type="veh_passenger"/>
    <trip id="veh49" depart="311.35" from="-232429764#1" to="193705376#1" departLane="best" type="veh_passenger" departSpeed="max"/>
    <trip id="veh50" depart="317.70" from="1448604737#0" to="-180210167" departLane="best" type="veh_passenger" departSpeed="max"/>
    <trip id="veh51" depart="324.06" from="231885715#3" to="172348764#3" departLane="best" type="veh_passenger"/>
    <trip id="veh52" depart="330.41" from="232095615#0" to="172348717" departLane="best" type="veh_passenger"/>
    <trip id="veh53" depart="336.76" from="-1053917530#0" to="-696492537#0" departLane="best" type="veh_passenger"/>
    <trip id="veh54" depart="343.12" from="-111845385" to="643296240" departLane="best" type="veh_passenger" departSpeed="max"/>
    <trip id="veh55" depart="349.47" from="422272357" to="500036285#2" departLane="best" type="veh_passenger" departSpeed="max"/>
    <trip id="veh56" depart="355.83" from="422272357" to="694762534" departLane="best" type="veh_passenger" departSpeed="max"/>
    <trip id="veh57" depart="362.18" from="-1305159250" to="172126340" departLane="best" type="veh_passenger" departSpeed="max"/>
    <trip id="veh58" depart="368.53" from="-705044617#3" to="173044198#1" departLane="best" type="veh_passenger"/>
    <trip id="veh59" depart="374.89" from="-185943157" to="521751675" departLane="best" type="veh_passenger"/>
    <trip id="veh60" depart="381.24" from="111845386#6" to="300634296#0" departLane="best" type="veh_passenger"/>
    <trip id="veh61" depart="387.60" from="-180214604" to="-61163734#0" departLane="best" type="veh_passenger" departSpeed="max"/>
    <trip id="veh62" depart="393.95" from="766166746#2" to="221344970#1" departLane="best" type="veh_passenger"/>
    <trip id="veh63" depart="400.30" from="-52993394#3" to="172348677" departLane="best" type="veh_passenger"/>
    <trip id="veh64" depart="406.66" from="-172338710" to="-28559206#3" departLane="best" type="veh_passenger"/>
    <trip id="veh65" depart="413.01" from="-351018906#6" to="183110570" departLane="best" type="veh_passenger"/>
    <trip id="veh66" depart="419.37" from="-184538888" to="-244107734" departLane="best" type="veh_passenger"/>
    <trip id="veh67" depart="425.72" from="-1300402442" to="185943148" departLane="best" type="veh_passenger" departSpeed="max"/>
    <trip id="veh68" depart="432.07" from="-180216843#1" to="-177964201#0" departLane="best" type="veh_passenger"/>
    <trip id="veh69" depart="438.43" from="52799481#1" to="180214604" departLane="best" type="veh_passenger"/>
    <trip id="veh70" depart="444.78" from="-705044617#0" to="422263674#0" departLane="best" type="veh_passenger"/>
    <trip id="veh71" depart="451.14" from="324012356" to="-185939504#1" departLane="best" type="veh_passenger" departSpeed="max"/>
    <trip id="veh72" depart="457.49" from="185939504#4" to="231882050" departLane="best" type="veh_passenger"/>
    <trip id="veh73" depart="463.84" from="705044617#2" to="-169429814#0" departLane="best" type="veh_passenger"/>
    <trip id="veh74" depart="470.20" from="-521751688#0" to="-754991649" departLane="best" type="veh_passenger"/>
    <trip id="veh75" depart="476.55" from="422263673" to="-351018906#6" departLane="best" type="veh_passenger"/>
    <trip id="veh76" depart="482.91" from="-180205549#1" to="134726868" departLane="best" type="veh_passenger"/>
    <trip id="veh77" depart="489.26" from="-185939504#2" to="546897110" departLane="best" type="veh_passenger"/>
    <trip id="veh78" depart="495.61" from="-546898504" to="516565941" departLane="best" type="veh_passenger"/>
    <trip id="veh79" depart="501.97" from="111846943#1" to="-112117501" departLane="best" type="veh_passenger"/>
    <trip id="veh80" depart="508.32" from="96906941#1" to="509139423" departLane="best" type="veh_passenger"/>
    <trip id="veh81" depart="514.68" from="690729663" to="61163734#2" departLane="best" type="veh_passenger" departSpeed="max"/>
    <trip id="veh82" depart="521.03" from="369713978" to="-183110574#1" departLane="best" type="veh_passenger" departSpeed="max"/>
    <trip id="veh83" depart="527.38" from="-751465485#7" to="-232351915#2" departLane="best" type="veh_passenger" departSpeed="max"/>
    <trip id="veh84" depart="533.74" from="-521751675" to="-112551794#3" departLane="best" type="veh_passenger" departSpeed="max"/>
    <trip id="veh85" depart="540.09" from="61163734#1" to="96909748" departLane="best" type="veh_passenger"/>
    <trip id="veh86" depart="546.45" from="111846947#6" to="257416645#1" departLane="best" type="veh_passenger"/>
    <trip id="veh87" depart="552.80" from="690729663" to="180214610#3" departLane="best" type="veh_passenger" departSpeed="max"/>
    <trip id="veh88" depart="559.15" from="111845392#1" to="351018906#3" departLane="best" type="veh_passenger"/>
    <trip id="veh89" depart="565.51" from="-96909748" to="516563871" departLane="best" type="veh_passenger" departSpeed="max"/>
    <trip id="veh90" depart="571.86" from="-1305159249" to="-184551693#0" departLane="best" type="veh_passenger" departSpeed="max"/>
    <trip id="veh91" depart="578.22" from="136448419#0" to="231882050" departLane="best" type="veh_passenger"/>
    <trip id="veh92" depart="584.57" from="-184538889#1" to="-172348769#1" departLane="best" type="veh_passenger" departSpeed="max"/>
    <trip id="veh93" depart="590.92" from="432541153" to="-351018906#5" departLane="best" type="veh_passenger" departSpeed="max"/>
    <trip id="veh94" depart="597.28" from="136448419#0" to="185939504#2" departLane="best" type="veh_passenger"/>
    <trip id="veh95" depart="603.63" from="1093502347#1" to="650461419#2" departLane="best" type="veh_passenger"/>
    <trip id="veh96" depart="609.99" from="-180214604" to="257416645#0" departLane="best" type="veh_passenger" departSpeed="max"/>
    <trip id="veh97" depart="616.34" from="-184551692#1" to="112551792#2" departLane="best" type="veh_passenger" departSpeed="max"/>
    <trip id="veh98" depart="622.69" from="-1300402442" to="136448419#1" departLane="best" type="veh_passenger" departSpeed="max"/>
    <trip id="veh99" depart="629.05" from="96906941#0" to="96909748" departLane="best" type="veh_passenger"/>
    <trip id="veh100" depart="635.40" from="-1300402442" to="-232351915#2" departLane="best" type="veh_passenger" departSpeed="max"/>
    <trip id="veh101" depart="641.76" from="-185943157" to="650461419#1" departLane="best" type="veh_passenger"/>
    <trip id="veh102" depart="648.11" from="422272357" to="521751688#1" departLane="best" type="veh_passenger" departSpeed="max"/>
    <trip id="veh103" depart="654.46" from="-512527261" to="-180214607" departLane="best" type="veh_passenger" departSpeed="max"/>
    <trip id="veh104" depart="660.82" from="351018908#0-AddedOnRampEdge" to="232429764#1" departLane="best" type="veh_passenger"/>
    <trip id="veh105" depart="667.17" from="1448604738" to="761402815" departLane="best" type="veh_passenger"/>
    <trip id="veh106" depart="673.53" from="172348769#1" to="-1093502347#0" departLane="best" type="veh_passenger"/>
    <trip id="veh107" depart="679.88" from="-172338734" to="-172348764#0" departLane="best" type="veh_passenger" departSpeed="max"/>
    <trip id="veh108" depart="686.23" from="-221344970#1" to="184538889#1" departLane="best" type="veh_passenger" departSpeed="max"/>
    <trip id="veh109" depart="692.59" from="184551692#0" to="-185943157" departLane="best" type="veh_passenger"/>
    <trip id="veh110" depart="698.94" from="369713978" to="-1448604738" departLane="best" type="veh_passenger" departSpeed="max"/>
    <trip id="veh111" depart="705.30" from="-1300402451" to="521753313" departLane="best" type="veh_passenger" departSpeed="max"/>
    <trip id="veh112" depart="711.65" from="500036285#0" to="172495781#2" departLane="best" type="veh_passenger" departSpeed="max"/>
    <trip id="veh113" depart="718.00" from="351018908#0-AddedOnRampEdge" to="180216843#0" departLane="best" type="veh_passenger"/>
    <trip id="veh114" depart="724.36" from="257416645#0" to="516565941" departLane="best" type="veh_passenger"/>
    <trip id="veh115" depart="730.71" from="500036285#0" to="-232351915#0" departLane="best" type="veh_passenger" departSpeed="max"/>
    <trip id="veh116" depart="737.07" from="-185939504#2" to="-172338714#0" departLane="best" type="veh_passenger"/>
    <trip id="veh117" depart="743.42" from="232095615#0" to="521753313" departLane="best" type="veh_passenger"/>
    <trip id="veh118" depart="749.78" from="324012356" to="521753313" departLane="best" type="veh_passenger" departSpeed="max"/>
    <trip id="veh119" depart="756.13" from="-111845392#0" to="341527529" departLane="best" type="veh_passenger"/>
    <trip id="veh120" depart="762.48" from="-351018906#3" to="643296240" departLane="best" type="veh_passenger"/>
    <trip id="veh121" depart="768.84" from="324012356" to="-448594622#0" departLane="best" type="veh_passenger" departSpeed="max"/>
    <trip id="veh122" depart="775.19" from="232429764#0" to="-172338730" departLane="best" type="veh_passenger"/>
    <trip id="veh123" depart="781.55" from="-694762534" to="-52991231#1" departLane="best" type="veh_passenger" departSpeed="max"/>
    <trip id="veh124" depart="787.90" from="257416645#0" to="-300634296#1" departLane="best" type="veh_passenger"/>
    <trip id="veh125" depart="794.25" from="-111845386#6" to="-185939504#2" departLane="best" type="veh_passenger"/>
    <trip id="veh126" depart="800.61" from="-351018906#1" to="516568703" departLane="best" type="veh_passenger"/>
    <trip id="veh127" depart="806.96" from="672176869" to="-516566971" departLane="best" type="veh_passenger"/>
    <trip id="veh128" depart="813.32" from="172338736" to="112551794#1" departLane="best" type="veh_passenger" departSpeed="max"/>
    <trip id="veh129" depart="819.67" from="704803137#1" to="172348764#1" departLane="best" type="veh_passenger"/>
    <trip id="veh130" depart="826.02" from="690729663" to="-184538884#1" departLane="best" type="veh_passenger" departSpeed="max"/>
    <trip id="veh131" depart="832.38" from="650461419#2" to="-432541152" departLane="best" type="veh_passenger"/>
    <trip id="veh132" depart="838.73" from="-1448604737#2" to="1305159250" departLane="best" type="veh_passenger" departSpeed="max"/>
    <trip id="veh133" depart="845.09" from="185939504#4" to="-61163734#2" departLane="best" type="veh_passenger"/>
    <trip id="veh134" depart="851.44" from="1448604737#0" to="172348643#2" departLane="best" type="veh_passenger" departSpeed="max"/>
    <trip id="veh135" depart="857.79" from="-516565941" to="180214610#1" departLane="best" type="veh_passenger" departSpeed="max"/>
    <trip id="veh136" depart="864.15" from="-185939504#5" to="232429764#1" departLane="best" type="veh_passenger"/>
    <trip id="veh137" depart="870.50" from="-1053917530#1" to="61163734#1" departLane="best" type="veh_passenger"/>
    <trip id="veh138" depart="876.86" from="111845386#5" to="257416645#1" departLane="best" type="veh_passenger"/>
    <trip id="veh139" depart="883.21" from="203349706#1" to="231882050" departLane="best" type="veh_passenger"/>
    <trip id="veh140" depart="889.56" from="-509139423" to="-120353050" departLane="best" type="veh_passenger" departSpeed="max"/>
    <trip id="veh141" depart="895.92" from="-28559206#2" to="513528476" departLane="best" type="veh_passenger"/>
    <trip id="veh142" depart="902.27" from="-521751688#0" to="-52736792#2" departLane="best" type="veh_passenger"/>
    <trip id="veh143" depart="908.63" from="-172338717" to="1300402442" departLane="best" type="veh_passenger" departSpeed="max"/>
    <trip id="veh144" depart="914.98" from="500036285#0" to="185939504#0" departLane="best" type="veh_passenger" departSpeed="max"/>
    <trip id="veh145" depart="921.33" from="-242576060" to="173044198#1" departLane="best" type="veh_passenger" departSpeed="max"/>
    <trip id="veh146" depart="927.69" from="-1053917530#0" to="-517840849#0" departLane="best" type="veh_passenger"/>
    <trip id="veh147" depart="934.04" from="-52990105#1" to="180214610#3" departLane="best" type="veh_passenger"/>
    <trip id="veh148" depart="940.40" from="172495781#0" to="1448604737#2" departLane="best" type="veh_passenger" departSpeed="max"/>
    <trip id="veh149" depart="946.75" from="-546897110" to="-232351915#2" departLane="best" type="veh_passenger" departSpeed="max"/>
    <trip id="veh150" depart="953.10" from="257416645#0" to="-184109152" departLane="best" type="veh_passenger"/>
    <trip id="veh151" depart="959.46" from="-1305159250" to="172348677" departLane="best" type="veh_passenger" departSpeed="max"/>
    <trip id="veh152" depart="965.81" from="172338723" to="-751465485#1" departLane="best" type="veh_passenger"/>
    <trip id="veh153" depart="972.17" from="177964201#1" to="-28559206#3" departLane="best" type="veh_passenger"/>
    <trip id="veh154" depart="978.52" from="-184551693#2" to="169191889#0" departLane="best" type="veh_passenger"/>
    <trip id="veh155" depart="984.87" from="369713978" to="-120353050" departLane="best" type="veh_passenger" departSpeed="max"/>
    <trip id="veh156" depart="991.23" from="-521762571" to="185943148" departLane="best" type="veh_passenger" departSpeed="max"/>
    <trip id="veh157" depart="997.58" from="-180205549#2" to="232351915#1" departLane="best" type="veh_passenger" departSpeed="max"/>
    <trip id="veh158" depart="1003.94" from="172495781#0" to="-1053917531#2" departLane="best" type="veh_passenger" departSpeed="max"/>
    <trip id="veh159" depart="1010.29" from="231880679#0" to="357187038#0" departLane="best" type="veh_passenger" departSpeed="max"/>
    <trip id="veh160" depart="1016.64" from="-1448604737#2" to="1300402451" departLane="best" type="veh_passenger" departSpeed="max"/>
    <trip id="veh161" depart="1023.00" from="-172348769#1" to="704803137#1" departLane="best" type="veh_passenger"/>
    <trip id="veh162" depart="1029.35" from="1093502347#0" to="-112117501" departLane="best" type="veh_passenger" departSpeed="max"/>
    <trip id="veh163" depart="1035.71" from="-185939504#2" to="513528476" departLane="best" type="veh_passenger"/>
    <trip id="veh164" depart="1042.06" from="-694762473#2" to="422269125" departLane="best" type="veh_passenger" departSpeed="max"/>
    <trip id="veh165" depart="1048.41" from="177964201#0" to="761402815" departLane="best" type="veh_passenger" departSpeed="max"/>
    <trip id="veh166" depart="1054.77" from="136448419#1" to="696492537#1" departLane="best" type="veh_passenger"/>
    <trip id="veh167" depart="1061.12" from="432541153" to="184551693#0" departLane="best" type="veh_passenger" departSpeed="max"/>
    <trip id="veh168" depart="1067.48" from="351018906#7" to="173044198#1" departLane="best" type="veh_passenger"/>
    <trip id="veh169" depart="1073.83" from="448594622#1" to="351018906#0" departLane="best" type="veh_passenger"/>
    <trip id="veh170" depart="1080.18" from="-185939504#1" to="193705376#1" departLane="best" type="veh_passenger"/>
    <trip id="veh171" depart="1086.54" from="232095613#0" to="172348699" departLane="best" type="veh_passenger"/>
    <trip id="veh172" depart="1092.89" from="172008695#1" to="-516104230" departLane="best" type="veh_passenger"/>
    <trip id="veh173" depart="1099.25" from="-1300402451" to="-516568704" departLane="best" type="veh_passenger" departSpeed="max"/>
    <trip id="veh174" depart="1105.60" from="-221344970#1" to="-690729663" departLane="best" type="veh_passenger" departSpeed="max"/>
    <trip id="veh175" depart="1111.95" from="111845386#6" to="-177964329" departLane="best" type="veh_passenger"/>
    <trip id="veh176" depart="1118.31" from="-184538889#0" to="232095615#1" departLane="best" type="veh_passenger"/>
    <trip id="veh177" depart="1124.66" from="183110574#0" to="-1180579343" departLane="best" type="veh_passenger"/>
    <trip id="veh178" depart="1131.02" from="-521753313" to="172348769#0" departLane="best" type="veh_passenger" departSpeed="max"/>
    <trip id="veh179" depart="1137.37" from="-521762571" to="-203349706#1" departLane="best" type="veh_passenger" departSpeed="max"/>
    <trip id="veh180" depart="1143.72" from="120353050" to="232351915#1" departLane="best" type="veh_passenger" departSpeed="max"/>
    <trip id="veh181" depart="1150.08" from="422040188#1" to="351018908#3" departLane="best" type="veh_passenger"/>
    <trip id="veh182" depart="1156.43" from="-516563871" to="-1053917531#3" departLane="best" type="veh_passenger" departSpeed="max"/>
    <trip id="veh183" depart="1162.79" from="-448594622#0" to="351018906#5" departLane="best" type="veh_passenger"/>
    <trip id="veh184" depart="1169.14" from="422040188#0" to="696492537#1" departLane="best" type="veh_passenger"/>
    <trip id="veh185" depart="1175.49" from="111845392#5" to="184538889#1" departLane="best" type="veh_passenger"/>
    <trip id="veh186" depart="1181.85" from="-183110570" to="-244107734" departLane="best" type="veh_passenger" departSpeed="max"/>
    <trip id="veh187" depart="1188.20" from="-52993394#0" to="-111845392#0" departLane="best" type="veh_passenger"/>
    <trip id="veh188" depart="1194.56" from="-351018906#5" to="231885715#1" departLane="best" type="veh_passenger"/>
    <trip id="veh189" depart="1200.91" from="-521751688#1" to="-183110574#0" departLane="best" type="veh_passenger" departSpeed="max"/>
    <trip id="veh190" depart="1207.26" from="169429814#1" to="-111845386#4" departLane="best" type="veh_passenger"/>
    <trip id="veh191" depart="1213.62" from="-516568703" to="180205549#2" departLane="best" type="veh_passenger" departSpeed="max"/>
    <trip id="veh192" depart="1219.97" from="-111845392#2" to="198993948#0" departLane="best" type="veh_passenger"/>
    <trip id="veh193" depart="1226.33" from="-172338734" to="137312035" departLane="best" type="veh_passenger" departSpeed="max"/>
    <trip id="veh194" depart="1232.68" from="-112551794#3" to="111845392#3" departLane="best" type="veh_passenger"/>
    <trip id="veh195" depart="1239.04" from="-180214610#3" to="-696492537#0" departLane="best" type="veh_passenger" departSpeed="max"/>
    <trip id="veh196" depart="1245.39" from="231885715#3" to="111845392#3" departLane="best" type="veh_passenger"/>
    <trip id="veh197" depart="1251.74" from="-185939504#3" to="-136617991#1" departLane="best" type="veh_passenger"/>
    <trip id="veh198" depart="1258.10" from="96906941#1" to="1053917531#2" departLane="best" type="veh_passenger"/>
    <trip id="veh199" depart="1264.45" from="172348764#0" to="422040188#3" departLane="best" type="veh_passenger"/>
    <trip id="veh200" depart="1270.81" from="172348764#2" to="351018906#6" departLane="best" type="veh_passenger"/>
    <trip id="veh201" depart="1277.16" from="52991231#0" to="-185939504#6" departLane="best" type="veh_passenger"/>
    <trip id="veh202" depart="1283.51" from="-172338714#1" to="231882050" departLane="best" type="veh_passenger" departSpeed="max"/>
    <trip id="veh203" depart="1289.87" from="112117501" to="-244107734" departLane="best" type="veh_passenger" departSpeed="max"/>
    <trip id="veh204" depart="1296.22" from="-172348764#0" to="184551692#0" departLane="best" type="veh_passenger"/>
    <trip id="veh205" depart="1302.58" from="231880678#1" to="-172348737" departLane="best" type="veh_passenger"/>
    <trip id="veh206" depart="1308.93" from="351018906#1" to="710566982" departLane="best" type="veh_passenger"/>
    <trip id="veh207" depart="1315.28" from="-1448604737#2" to="-111845386#3" departLane="best" type="veh_passenger" departSpeed="max"/>
    <trip id="veh208" depart="1321.64" from="61163734#2" to="112551792#3" departLane="best" type="veh_passenger"/>
    <trip id="veh209" depart="1327.99" from="184538888" to="-120353050" departLane="best" type="veh_passenger"/>
    <trip id="veh210" depart="1334.35" from="180210167" to="185939504#6" departLane="best" type="veh_passenger" departSpeed="max"/>
    <trip id="veh211" depart="1340.70" from="-134726880#0" to="377972400#0" departLane="best" type="veh_passenger"/>
    <trip id="veh212" depart="1347.05" from="369713978" to="184538888" departLane="best" type="veh_passenger" departSpeed="max"/>
    <trip id="veh213" depart="1353.41" from="232351915#1" to="1053917530#2" departLane="best" type="veh_passenger"/>
    <trip id="veh214" depart="1359.76" from="-52990105#0" to="111845386#2" departLane="best" type="veh_passenger"/>
    <trip id="veh215" depart="1366.12" from="369713978" to="448594622#0" departLane="best" type="veh_passenger" departSpeed="max"/>
    <trip id="veh216" depart="1372.47" from="-136617985#1" to="705044617#1" departLane="best" type="veh_passenger"/>
    <trip id="veh217" depart="1378.82" from="172338730" to="497125635" departLane="best" type="veh_passenger" departSpeed="max"/>
    <trip id="veh218" depart="1385.18" from="183110574#1" to="1305159250" departLane="best" type="veh_passenger"/>
    <trip id="veh219" depart="1391.53" from="185943149#0" to="710566982" departLane="best" type="veh_passenger"/>
    <trip id="veh220" depart="1397.89" from="-221344970#0" to="422269125" departLane="best" type="veh_passenger"/>
    <trip id="veh221" depart="1404.24" from="111845386#4" to="172008695#1" departLane="best" type="veh_passenger"/>
    <trip id="veh222" depart="1410.59" from="-52993394#0" to="300634296#1" departLane="best" type="veh_passenger"/>
    <trip id="veh223" depart="1416.95" from="-203349706#1" to="513530027#3" departLane="best" type="veh_passenger"/>
    <trip id="veh224" depart="1423.30" from="351018906#7" to="-1448604737#0" departLane="best" type="veh_passenger"/>
    <trip id="veh225" depart="1429.66" from="422272357" to="-351018906#4" departLane="best" type="veh_passenger" departSpeed="max"/>
    <trip id="veh226" depart="1436.01" from="-516563871" to="-111845386#6" departLane="best" type="veh_passenger" departSpeed="max"/>
    <trip id="veh227" depart="1442.36" from="377972400#0" to="-184538887#1" departLane="best" type="veh_passenger"/>
    <trip id="veh228" depart="1448.72" from="-180214610#3" to="422269125" departLane="best" type="veh_passenger" departSpeed="max"/>
    <trip id="veh229" depart="1455.07" from="-351018906#7" to="521753313" departLane="best" type="veh_passenger"/>
    <trip id="veh230" depart="1461.43" from="182802916" to="-516104230" departLane="best" type="veh_passenger" departSpeed="max"/>
    <trip id="veh231" depart="1467.78" from="-1093502347#6" to="694762534" departLane="best" type="veh_passenger"/>
    <trip id="veh232" depart="1474.13" from="180210167" to="221344970#0" departLane="best" type="veh_passenger" departSpeed="max"/>
    <trip id="veh233" depart="1480.49" from="-761402815" to="422264447" departLane="best" type="veh_passenger" departSpeed="max"/>
    <trip id="veh234" depart="1486.84" from="180210167" to="-52991231#2" departLane="best" type="veh_passenger" departSpeed="max"/>
    <trip id="veh235" depart="1493.20" from="120353050" to="161167914#1" departLane="best" type="veh_passenger" departSpeed="max"/>