<?xml version="1.0" encoding="UTF-8"?>

<!-- generated on 2026-01-15T11:54:24.033108+05:45 by Eclipse SUMO netedit 1.25.0
<neteditConfiguration xmlns:xsi="http://www.w3.org/2001/XMLSchema-instance" xsi:noNamespaceSchemaLocation="http://sumo.dlr.de/xsd/neteditConfiguration.xsd">

    <input>
        <sumocfg-file value="C:\Users\manis\.gemini\antigravity\scratch\traffic_cf_madrl\sumo_files\test_sumo\test_sumo.sumocfg"/>
        <additional-files value="C:\Users\manis\.gemini\antigravity\scratch\traffic_cf_madrl\sumo_files\test_sumo\trips.trips.xml"/>
        <route-files value="C:\Users\manis\.gemini\antigravity\scratch\traffic_cf_madrl\sumo_files\test_sumo\trips.trips.xml"/>
        <sumo-net-file value="C:\Users\manis\.gemini\antigravity\scratch\traffic_cf_madrl\sumo_files\test_sumo\test_sumo.net.xml"/>
    </input>

    <output>
        <output-file value="C:\Users\manis\.gemini\antigravity\scratch\traffic_cf_madrl\sumo_files\test_sumo\test_sumo.net.xml"/>
    </output>

    <processing>
        <geometry.min-radius.fix.railways value="false"/>
        <geometry.avoid-overlap value="false"/>
        <geometry.max-grade.fix value="false"/>
        <offset.disable-normalization value="true"/>
        <lefthand value="0"/>
    </processing>

    <junctions>
        <no-turnarounds value="true"/>
        <junctions.corner-detail value="5"/>
        <junctions.limit-turn-speed value="5.50"/>
        <rectangular-lane-cut value="0"/>
    </junctions>

    <pedestrian>
        <walkingareas value="0"/>
    </pedestrian>

    <netedit>
        <ignore.routeelements value="false"/>
    </netedit>

</neteditConfiguration>
-->

<net version="1.20" junctionCornerDetail="5" limitTurnSpeed="5.50" avoidOverlap="0" xmlns:xsi="http://www.w3.org/2001/XMLSchema-instance" xsi:noNamespaceSchemaLocation="http://sumo.dlr.de/xsd/net_file.xsd">

    <location netOffset="0.00,0.00" convBoundary="-136.33,-172.86,149.22,114.58" origBoundary="-10000000000.00,-10000000000.00,10000000000.00,10000000000.00" projParameter="!"/>

    <edge id=":J1_0" function="internal">
        <lane id=":J1_0_0" index="0" speed="6.54" length="9.10" shape="-24.64,15.16 -27.12,15.50 -28.89,16.54 -29.97,18.29 -30.35,20.74"/>
    </edge>
    <edge id=":J1_1" function="internal">
        <lane id=":J1_1_0" index="0" speed="13.89" length="14.47" shape="-24.64,15.16 -39.11,15.08"/>
        <lane id=":J1_1_1" index="1" speed="13.89" length="14.47" shape="-24.61,11.96 -39.09,11.88"/>
    </edge>
    <edge id=":J1_3" function="internal">
        <lane id=":J1_3_0" index="0" speed="8.66" length="3.72" shape="-24.61,11.96 -28.26,11.23"/>
    </edge>
    <edge id=":J1_14" function="internal">
        <lane id=":J1_14_0" index="0" speed="8.66" length="13.18" shape="-28.26,11.23 -28.48,11.18 -31.21,8.91 -32.82,5.13 -33.30,-0.14"/>
    </edge>
    <edge id=":J1_4" function="internal">
        <lane id=":J1_4_0" index="0" speed="6.49" length="9.03" shape="-30.10,-0.09 -29.78,2.37 -28.76,4.13 -27.02,5.19 -24.57,5.56"/>
    </edge>
    <edge id=":J1_5" function="internal">
        <lane id=":J1_5_0" index="0" speed="13.89" length="20.84" shape="-30.10,-0.09 -30.35,20.74"/>
    </edge>
    <edge id=":J1_6" function="internal">
        <lane id=":J1_6_0" index="0" speed="8.72" length="5.53" shape="-30.10,-0.09 -30.73,5.16 -30.83,5.38"/>
    </edge>
    <edge id=":J1_15" function="internal">
        <lane id=":J1_15_0" index="0" speed="8.72" length="11.39" shape="-30.83,5.38 -32.43,8.91 -35.22,11.15 -39.09,11.88"/>
    </edge>
    <edge id=":J1_7" function="internal">
        <lane id=":J1_7_0" index="0" speed="6.58" length="9.17" shape="-39.07,5.49 -36.58,5.14 -34.78,4.09 -33.69,2.33 -33.30,-0.14"/>
    </edge>
    <edge id=":J1_8" function="internal">
        <lane id=":J1_8_0" index="0" speed="13.89" length="14.50" shape="-39.07,5.49 -24.57,5.56"/>
        <lane id=":J1_8_1" index="1" speed="13.89" length="14.50" shape="-39.08,8.69 -24.59,8.76"/>
    </edge>
    <edge id=":J1_10" function="internal">
        <lane id=":J1_10_0" index="0" speed="8.66" length="3.74" shape="-39.08,8.69 -35.42,9.41"/>
    </edge>
    <edge id=":J1_16" function="internal">
        <lane id=":J1_16_0" index="0" speed="8.66" length="13.15" shape="-35.42,9.41 -35.22,9.45 -32.48,11.72 -30.85,15.48 -30.35,20.74"/>
    </edge>
    <edge id=":J1_11" function="internal">
        <lane id=":J1_11_0" index="0" speed="6.49" length="9.03" shape="-33.55,20.71 -33.88,18.26 -34.91,16.50 -36.65,15.44 -39.11,15.08"/>
    </edge>
    <edge id=":J1_12" function="internal">
        <lane id=":J1_12_0" index="0" speed="13.89" length="20.85" shape="-33.55,20.71 -33.30,-0.14"/>
    </edge>
    <edge id=":J1_13" function="internal">
        <lane id=":J1_13_0" index="0" speed="8.69" length="5.59" shape="-33.55,20.71 -32.95,15.46 -32.82,15.18"/>
    </edge>
    <edge id=":J1_17" function="internal">
        <lane id=":J1_17_0" index="0" speed="8.69" length="11.32" shape="-32.82,15.18 -31.25,11.72 -28.47,9.49 -24.59,8.76"/>
    </edge>
    <edge id=":J2_0" function="internal">
        <lane id=":J2_0_0" index="0" speed="6.54" length="9.14" shape="66.07,15.76 63.56,16.11 61.77,17.16 60.69,18.91 60.33,21.36"/>
    </edge>
    <edge id=":J2_1" function="internal">
        <lane id=":J2_1_0" index="0" speed="13.89" length="14.51" shape="66.07,15.76 51.55,15.71"/>
        <lane id=":J2_1_1" index="1" speed="13.89" length="14.51" shape="66.07,12.56 51.57,12.51"/>
    </edge>
    <edge id=":J2_3" function="internal">
        <lane id=":J2_3_0" index="0" speed="8.64" length="3.78" shape="66.07,12.56 62.37,11.84"/>
    </edge>
    <edge id=":J2_14" function="internal">
        <lane id=":J2_14_0" index="0" speed="8.64" length="13.19" shape="62.37,11.84 62.17,11.80 59.41,9.54 57.81,5.75 57.36,0.46"/>
    </edge>
    <edge id=":J2_4" function="internal">
        <lane id=":J2_4_0" index="0" speed="6.46" length="9.03" shape="60.56,0.53 60.86,2.99 61.88,4.75 63.62,5.81 66.08,6.16"/>
    </edge>
    <edge id=":J2_5" function="internal">
        <lane id=":J2_5_0" index="0" speed="13.89" length="20.83" shape="60.56,0.53 60.33,21.36"/>
    </edge>
    <edge id=":J2_6" function="internal">
        <lane id=":J2_6_0" index="0" speed="8.73" length="5.47" shape="60.56,0.53 59.90,5.79 59.84,5.94"/>
    </edge>
    <edge id=":J2_15" function="internal">
        <lane id=":J2_15_0" index="0" speed="8.73" length="11.44" shape="59.84,5.94 58.19,9.54 55.41,11.78 51.57,12.51"/>
    </edge>
    <edge id=":J2_7" function="internal">
        <lane id=":J2_7_0" index="0" speed="6.58" length="9.16" shape="51.62,6.11 54.08,5.77 55.86,4.72 56.96,2.95 57.36,0.46"/>
    </edge>
    <edge id=":J2_8" function="internal">
        <lane id=":J2_8_0" index="0" speed="13.89" length="14.47" shape="51.62,6.11 66.08,6.16"/>
        <lane id=":J2_8_1" index="1" speed="13.89" length="14.47" shape="51.59,9.31 66.07,9.36"/>
    </edge>
    <edge id=":J2_10" function="internal">
        <lane id=":J2_10_0" index="0" speed="8.69" length="3.67" shape="51.59,9.31 55.19,10.04"/>
    </edge>
    <edge id=":J2_16" function="internal">
        <lane id=":J2_16_0" index="0" speed="8.69" length="13.16" shape="55.19,10.04 55.42,10.09 58.15,12.35 59.79,16.11 60.33,21.36"/>
    </edge>
    <edge id=":J2_11" function="internal">
        <lane id=":J2_11_0" index="0" speed="6.53" length="9.05" shape="57.13,21.36 56.78,18.90 55.74,17.14 53.99,16.08 51.55,15.71"/>
    </edge>
    <edge id=":J2_12" function="internal">
        <lane id=":J2_12_0" index="0" speed="13.89" length="20.90" shape="57.13,21.36 57.36,0.46"/>
    </edge>
    <edge id=":J2_13" function="internal">
        <lane id=":J2_13_0" index="0" speed="8.70" length="5.67" shape="57.13,21.36 57.69,16.11 57.85,15.75"/>
    </edge>
    <edge id=":J2_17" function="internal">
        <lane id=":J2_17_0" index="0" speed="8.70" length="11.28" shape="57.85,15.75 59.37,12.36 62.17,10.11 66.07,9.36"/>
    </edge>
    <edge id=":J5_0" function="internal">
        <lane id=":J5_0_0" index="0" speed="6.63" length="9.30" shape="68.13,-86.18 65.61,-85.84 63.79,-84.78 62.68,-82.99 62.27,-80.48"/>
    </edge>
    <edge id=":J5_1" function="internal">
        <lane id=":J5_1_0" index="0" speed="13.89" length="14.60" shape="68.13,-86.18 53.53,-86.13"/>
    </edge>
    <edge id=":J5_2" function="internal">
        <lane id=":J5_2_0" index="0" speed="7.94" length="3.95" shape="68.13,-86.18 64.23,-86.77"/>
    </edge>
    <edge id=":J5_12" function="internal">
        <lane id=":J5_12_0" index="0" speed="7.94" length="10.39" shape="64.23,-86.77 61.49,-88.47 59.93,-91.28 59.54,-95.21"/>
    </edge>
    <edge id=":J5_3" function="internal">
        <lane id=":J5_3_0" index="0" speed="6.43" length="9.03" shape="62.74,-95.07 62.98,-92.60 63.97,-90.82 65.69,-89.75 68.15,-89.38"/>
    </edge>
    <edge id=":J5_4" function="internal">
        <lane id=":J5_4_0" index="0" speed="13.89" length="14.60" shape="62.74,-95.07 62.27,-80.48"/>
    </edge>
    <edge id=":J5_5" function="internal">
        <lane id=":J5_5_0" index="0" speed="8.24" length="4.04" shape="62.74,-95.07 62.02,-91.21 61.96,-91.12"/>
    </edge>
    <edge id=":J5_13" function="internal">
        <lane id=":J5_13_0" index="0" speed="8.24" length="10.42" shape="61.96,-91.12 60.24,-88.43 57.41,-86.73 53.53,-86.13"/>
    </edge>
    <edge id=":J5_6" function="internal">
        <lane id=":J5_6_0" index="0" speed="6.80" length="9.51" shape="53.49,-89.33 56.04,-89.73 57.90,-90.84 59.07,-92.67 59.54,-95.21"/>
    </edge>
    <edge id=":J5_7" function="internal">
        <lane id=":J5_7_0" index="0" speed="13.89" length="14.67" shape="53.49,-89.33 68.15,-89.38"/>
    </edge>
    <edge id=":J5_8" function="internal">
        <lane id=":J5_8_0" index="0" speed="7.94" length="4.17" shape="53.49,-89.33 57.40,-88.82 57.59,-88.71"/>
    </edge>
    <edge id=":J5_14" function="internal">
        <lane id=":J5_14_0" index="0" speed="7.94" length="10.16" shape="57.59,-88.71 60.16,-87.18 61.79,-84.40 62.27,-80.48"/>
    </edge>
    <edge id=":J5_9" function="internal">
        <lane id=":J5_9_0" index="0" speed="6.43" length="9.03" shape="59.07,-80.55 58.76,-83.02 57.74,-84.77 56.00,-85.81 53.53,-86.13"/>
    </edge>
    <edge id=":J5_10" function="internal">
        <lane id=":J5_10_0" index="0" speed="13.89" length="14.67" shape="59.07,-80.55 59.54,-95.21"/>
    </edge>
    <edge id=":J5_11" function="internal">
        <lane id=":J5_11_0" index="0" speed="8.10" length="4.19" shape="59.07,-80.55 59.70,-84.44 59.84,-84.65"/>
    </edge>
    <edge id=":J5_15" function="internal">
        <lane id=":J5_15_0" index="0" speed="8.10" length="10.21" shape="59.84,-84.65 61.43,-87.20 64.25,-88.85 68.15,-89.38"/>
    </edge>
    <edge id=":J7_0" function="internal">
        <lane id=":J7_0_0" index="0" speed="6.66" length="9.30" shape="-23.15,-85.07 -25.65,-84.68 -27.45,-83.58 -28.55,-81.77 -28.95,-79.26"/>
    </edge>
    <edge id=":J7_1" function="internal">
        <lane id=":J7_1_0" index="0" speed="13.89" length="14.56" shape="-23.15,-85.07 -37.71,-84.89"/>
    </edge>
    <edge id=":J7_2" function="internal">
        <lane id=":J7_2_0" index="0" speed="7.96" length="4.09" shape="-23.15,-85.07 -27.04,-85.57 -27.18,-85.66"/>
    </edge>
    <edge id=":J7_12" function="internal">
        <lane id=":J7_12_0" index="0" speed="7.96" length="10.18" shape="-27.18,-85.66 -29.81,-87.20 -31.46,-89.96 -31.98,-93.85"/>
    </edge>
    <edge id=":J7_3" function="internal">
        <lane id=":J7_3_0" index="0" speed="6.46" length="9.03" shape="-28.78,-93.83 -28.45,-91.37 -27.41,-89.62 -25.65,-88.59 -23.19,-88.27"/>
    </edge>
    <edge id=":J7_4" function="internal">
        <lane id=":J7_4_0" index="0" speed="13.89" length="14.57" shape="-28.78,-93.83 -28.95,-79.26"/>
    </edge>
    <edge id=":J7_5" function="internal">
        <lane id=":J7_5_0" index="0" speed="8.10" length="4.12" shape="-28.78,-93.83 -29.37,-89.95 -29.47,-89.78"/>
    </edge>
    <edge id=":J7_13" function="internal">
        <lane id=":J7_13_0" index="0" speed="8.10" length="10.23" shape="-29.47,-89.78 -31.05,-87.17 -33.83,-85.48 -37.71,-84.89"/>
    </edge>
    <edge id=":J7_6" function="internal">
        <lane id=":J7_6_0" index="0" speed="6.62" length="9.26" shape="-37.74,-88.09 -35.24,-88.47 -33.44,-89.56 -32.36,-91.35 -31.98,-93.85"/>
    </edge>
    <edge id=":J7_7" function="internal">
        <lane id=":J7_7_0" index="0" speed="13.89" length="14.55" shape="-37.74,-88.09 -23.19,-88.27"/>
    </edge>
    <edge id=":J7_8" function="internal">
        <lane id=":J7_8_0" index="0" speed="7.95" length="4.08" shape="-37.74,-88.09 -33.85,-87.57 -33.72,-87.50"/>
    </edge>
    <edge id=":J7_14" function="internal">
        <lane id=":J7_14_0" index="0" speed="7.95" length="10.21" shape="-33.72,-87.50 -31.08,-85.93 -29.45,-83.16 -28.95,-79.26"/>
    </edge>
    <edge id=":J7_9" function="internal">
        <lane id=":J7_9_0" index="0" speed="6.45" length="9.03" shape="-32.15,-79.31 -32.46,-81.77 -33.49,-83.52 -35.24,-84.56 -37.71,-84.89"/>
    </edge>
    <edge id=":J7_10" function="internal">
        <lane id=":J7_10_0" index="0" speed="13.89" length="14.54" shape="-32.15,-79.31 -31.98,-93.85"/>
    </edge>
    <edge id=":J7_11" function="internal">
        <lane id=":J7_11_0" index="0" speed="8.13" length="4.08" shape="-32.15,-79.31 -31.54,-83.18 -31.46,-83.32"/>
    </edge>
    <edge id=":J7_15" function="internal">
        <lane id=":J7_15_0" index="0" speed="8.13" length="10.28" shape="-31.46,-83.32 -29.84,-85.97 -27.06,-87.66 -23.19,-88.27"/>
    </edge>

    <edge id="-E0" from="J1" to="J0" priority="-1">
        <lane id="-E0_0" index="0" speed="13.89" length="94.10" shape="-39.11,15.08 -133.21,14.76"/>
        <lane id="-E0_1" index="1" speed="13.89" length="94.10" shape="-39.09,11.88 -133.20,11.56"/>
    </edge>
    <edge id="-E1" from="J2" to="J1" priority="-1">
        <lane id="-E1_0" index="0" speed="13.89" length="76.19" shape="51.55,15.71 -24.64,15.16"/>
        <lane id="-E1_1" index="1" speed="13.89" length="76.19" shape="51.57,12.51 -24.61,11.96"/>
    </edge>
    <edge id="-E11" from="J5" to="J7" priority="-1">
        <lane id="-E11_0" index="0" speed="13.89" length="76.68" shape="53.53,-86.13 -23.15,-85.07"/>
    </edge>
    <edge id="-E12" from="J12" to="J7" priority="-1">
        <lane id="-E12_0" index="0" speed="13.89" length="98.61" shape="-136.35,-86.94 -37.74,-88.09"/>
    </edge>
    <edge id="-E13" from="J13" to="J7" priority="-1">
        <lane id="-E13_0" index="0" speed="13.89" length="79.02" shape="-28.15,-172.85 -28.78,-93.83"/>
    </edge>
    <edge id="-E14" from="J14" to="J5" priority="-1">
        <lane id="-E14_0" index="0" speed="13.89" length="64.06" shape="65.52,-159.07 62.74,-95.07"/>
    </edge>
    <edge id="-E2" from="J3" to="J2" priority="-1">
        <lane id="-E2_0" index="0" speed="13.89" length="83.15" shape="149.22,15.78 66.07,15.76"/>
        <lane id="-E2_1" index="1" speed="13.89" length="83.15" shape="149.22,12.58 66.07,12.56"/>
    </edge>
    <edge id="-E3" from="J4" to="J2" priority="-1">
        <lane id="-E3_0" index="0" speed="13.89" length="45.77" shape="57.10,67.13 57.13,21.36"/>
    </edge>
    <edge id="-E4" from="J5" to="J2" priority="-1">
        <lane id="-E4_0" index="0" speed="13.89" length="81.03" shape="62.27,-80.48 60.56,0.53"/>
    </edge>
    <edge id="-E5" from="J6" to="J1" priority="-1">
        <lane id="-E5_0" index="0" speed="13.89" length="93.86" shape="-34.45,114.56 -33.55,20.71"/>
    </edge>
    <edge id="-E6" from="J7" to="J1" priority="-1">
        <lane id="-E6_0" index="0" speed="13.89" length="79.18" shape="-28.95,-79.26 -30.10,-0.09"/>
    </edge>
    <edge id="-E9" from="J10" to="J5" priority="-1">
        <lane id="-E9_0" index="0" speed="13.89" length="66.44" shape="134.57,-85.76 68.13,-86.18"/>
    </edge>
    <edge id="E0" from="J0" to="J1" priority="-1">
        <lane id="E0_0" index="0" speed="13.89" length="94.10" shape="-133.17,5.16 -39.07,5.49"/>
        <lane id="E0_1" index="1" speed="13.89" length="94.10" shape="-133.18,8.36 -39.08,8.69"/>
    </edge>
    <edge id="E1" from="J1" to="J2" priority="-1">
        <lane id="E1_0" index="0" speed="13.89" length="76.19" shape="-24.57,5.56 51.62,6.11"/>
        <lane id="E1_1" index="1" speed="13.89" length="76.19" shape="-24.59,8.76 51.59,9.31"/>
    </edge>
    <edge id="E11" from="J7" to="J5" priority="-1">
        <lane id="E11_0" index="0" speed="13.89" length="76.68" shape="-23.19,-88.27 53.49,-89.33"/>
    </edge>
    <edge id="E12" from="J7" to="J12" priority="-1">
        <lane id="E12_0" index="0" speed="13.89" length="98.61" shape="-37.71,-84.89 -136.31,-83.74"/>
    </edge>
    <edge id="E13" from="J7" to="J13" priority="-1">
        <lane id="E13_0" index="0" speed="13.89" length="79.02" shape="-31.98,-93.85 -31.35,-172.87"/>
    </edge>
    <edge id="E14" from="J5" to="J14" priority="-1">
        <lane id="E14_0" index="0" speed="13.89" length="64.06" shape="59.54,-95.21 62.32,-159.21"/>
    </edge>
    <edge id="E2" from="J2" to="J3" priority="-1">
        <lane id="E2_0" index="0" speed="13.89" length="83.15" shape="66.08,6.16 149.22,6.18"/>
        <lane id="E2_1" index="1" speed="13.89" length="83.15" shape="66.07,9.36 149.22,9.38"/>
    </edge>
    <edge id="E3" from="J2" to="J4" priority="-1">
        <lane id="E3_0" index="0" speed="13.89" length="45.77" shape="60.33,21.36 60.30,67.13"/>
    </edge>
    <edge id="E4" from="J2" to="J5" priority="-1">
        <lane id="E4_0" index="0" speed="13.89" length="81.03" shape="57.36,0.46 59.07,-80.55"/>
    </edge>
    <edge id="E5" from="J1" to="J6" priority="-1">
        <lane id="E5_0" index="0" speed="13.89" length="93.86" shape="-30.35,20.74 -31.25,114.60"/>
    </edge>
    <edge id="E6" from="J1" to="J7" priority="-1">
        <lane id="E6_0" index="0" speed="13.89" length="79.18" shape="-33.30,-0.14 -32.15,-79.31"/>
    </edge>
    <edge id="E9" from="J5" to="J10" priority="-1">
        <lane id="E9_0" index="0" speed="13.89" length="66.44" shape="68.15,-89.38 134.59,-88.96"/>
    </edge>

    <tlLogic id="J1" type="static" programID="0" offset="0">
        <phase duration="42" state="GGGgrrrGGGgrrr"/>
        <phase duration="3"  state="yyyyrrryyyyrrr"/>
        <phase duration="42" state="rrrrGGgrrrrGGg"/>
        <phase duration="3"  state="rrrryyyrrrryyy"/>
    </tlLogic>
    <tlLogic id="J2" type="static" programID="0" offset="0">
        <phase duration="42" state="GGGgrrrGGGgrrr"/>
        <phase duration="3"  state="yyyyrrryyyyrrr"/>
        <phase duration="42" state="rrrrGGgrrrrGGg"/>
        <phase duration="3"  state="rrrryyyrrrryyy"/>
    </tlLogic>
    <tlLogic id="J5" type="static" programID="0" offset="0">
        <phase duration="42" state="GGgrrrGGgrrr"/>
        <phase duration="3"  state="yyyrrryyyrrr"/>
        <phase duration="42" state="rrrGGgrrrGGg"/>
        <phase duration="3"  state="rrryyyrrryyy"/>
    </tlLogic>
    <tlLogic id="J7" type="static" programID="0" offset="0">
        <phase duration="42" state="GGgrrrGGgrrr"/>
        <phase duration="3"  state="yyyrrryyyrrr"/>
        <phase duration="42" state="rrrGGgrrrGGg"/>
        <phase duration="3"  state="rrryyyrrryyy"/>
    </tlLogic>

    <junction id="J0" type="dead_end" x="-133.19" y="9.96" incLanes="-E0_0 -E0_1" intLanes="" shape="-133.19,9.96 -133.21,16.36 -133.19,9.96"/>
    <junction id="J1" type="traffic_light" x="-31.85" y="10.31" incLanes="-E1_0 -E1_1 -E6_0 E0_0 E0_1 -E5_0" intLanes=":J1_0_0 :J1_1_0 :J1_1_1 :J1_14_0 :J1_4_0 :J1_5_0 :J1_15_0 :J1_7_0 :J1_8_0 :J1_8_1 :J1_16_0 :J1_11_0 :J1_12_0 :J1_17_0" shape="-24.65,16.76 -24.56,3.96 -26.77,3.50 -27.54,2.94 -28.09,2.16 -28.41,1.16 -28.50,-0.07 -34.90,-0.16 -35.39,2.09 -35.97,2.88 -36.78,3.44 -37.81,3.78 -39.07,3.89 -39.11,16.68 -36.89,17.14 -36.12,17.70 -35.57,18.47 -35.25,19.48 -35.15,20.70 -28.75,20.76 -28.28,18.53 -27.71,17.75 -26.91,17.19 -25.89,16.86">
        <request index="0"  response="00000000000000" foes="00010000100000" cont="0"/>
        <request index="1"  response="10000000000000" foes="11110001100000" cont="0"/>
        <request index="2"  response="10000001000000" foes="11110001100000" cont="0"/>
        <request index="3"  response="10001111000000" foes="11001111100000" cont="1"/>
        <request index="4"  response="00001100000000" foes="00001100000000" cont="0"/>
        <request index="5"  response="00011100001111" foes="10011100001111" cont="0"/>
        <request index="6"  response="01011100001110" foes="01011100001110" cont="1"/>
        <request index="7"  response="00000000000000" foes="01000000001000" cont="0"/>
        <request index="8"  response="00000001000000" foes="11000001111000" cont="0"/>
        <request index="9"  response="10000001000000" foes="11000001111000" cont="0"/>
        <request index="10" response="10000001000111" foes="11000001100111" cont="1"/>
        <request index="11" response="00000000000110" foes="00000000000110" cont="0"/>
        <request index="12" response="00011110001110" foes="00011111001110" cont="0"/>
        <request index="13" response="00011100101110" foes="00011100101110" cont="1"/>
    </junction>
    <junction id="J10" type="dead_end" x="134.58" y="-87.36" incLanes="E9_0" intLanes="" shape="134.58,-87.36 134.60,-90.56 134.58,-87.36"/>
    <junction id="J12" type="dead_end" x="-136.33" y="-85.34" incLanes="E12_0" intLanes="" shape="-136.33,-85.34 -136.29,-82.14 -136.33,-85.34"/>
    <junction id="J13" type="dead_end" x="-29.75" y="-172.86" incLanes="E13_0" intLanes="" shape="-29.75,-172.86 -32.95,-172.89 -29.75,-172.86"/>
    <junction id="J14" type="dead_end" x="63.92" y="-159.14" incLanes="E14_0" intLanes="" shape="63.92,-159.14 60.72,-159.28 63.92,-159.14"/>
    <junction id="J2" type="traffic_light" x="58.74" y="10.96" incLanes="-E2_0 -E2_1 -E4_0 E1_0 E1_1 -E3_0" intLanes=":J2_0_0 :J2_1_0 :J2_1_1 :J2_14_0 :J2_4_0 :J2_5_0 :J2_15_0 :J2_7_0 :J2_8_0 :J2_8_1 :J2_16_0 :J2_11_0 :J2_12_0 :J2_17_0" shape="66.07,17.36 66.08,4.56 63.86,4.12 63.10,3.56 62.56,2.78 62.25,1.78 62.16,0.56 55.76,0.43 55.26,2.71 54.68,3.50 53.89,4.07 52.87,4.40 51.63,4.51 51.54,17.31 53.76,17.77 54.53,18.33 55.09,19.12 55.42,20.13 55.53,21.36 61.93,21.36 62.39,19.14 62.97,18.36 63.77,17.81 64.81,17.47">
        <request index="0"  response="00000000000000" foes="00010000100000" cont="0"/>
        <request index="1"  response="10000000000000" foes="11110001100000" cont="0"/>
        <request index="2"  response="10000001000000" foes="11110001100000" cont="0"/>
        <request index="3"  response="10001111000000" foes="11001111100000" cont="1"/>
        <request index="4"  response="00001100000000" foes="00001100000000" cont="0"/>
        <request index="5"  response="00011100001111" foes="10011100001111" cont="0"/>
        <request index="6"  response="01011100001110" foes="01011100001110" cont="1"/>
        <request index="7"  response="00000000000000" foes="01000000001000" cont="0"/>
        <request index="8"  response="00000001000000" foes="11000001111000" cont="0"/>
        <request index="9"  response="10000001000000" foes="11000001111000" cont="0"/>
        <request index="10" response="10000001000111" foes="11000001100111" cont="1"/>
        <request index="11" response="00000000000110" foes="00000000000110" cont="0"/>
        <request index="12" response="00011110001110" foes="00011111001110" cont="0"/>
        <request index="13" response="00011100101110" foes="00011100101110" cont="1"/>
    </junction>
    <junction id="J3" type="dead_end" x="149.22" y="10.98" incLanes="E2_0 E2_1" intLanes="" shape="149.22,10.98 149.22,4.58 149.22,10.98"/>
    <junction id="J4" type="dead_end" x="58.70" y="67.13" incLanes="E3_0" intLanes="" shape="58.70,67.13 61.90,67.13 58.70,67.13"/>
    <junction id="J5" type="traffic_light" x="60.82" y="-87.83" incLanes="-E9_0 -E14_0 E11_0 E4_0" intLanes=":J5_0_0 :J5_1_0 :J5_12_0 :J5_3_0 :J5_4_0 :J5_13_0 :J5_6_0 :J5_7_0 :J5_14_0 :J5_9_0 :J5_10_0 :J5_15_0" shape="68.12,-84.58 68.16,-90.98 65.96,-91.44 65.20,-92.00 64.68,-92.78 64.39,-93.78 64.33,-95.01 57.94,-95.28 57.36,-92.89 56.73,-92.05 55.87,-91.44 54.78,-91.07 53.46,-90.93 53.55,-84.53 55.76,-84.12 56.53,-83.57 57.07,-82.80 57.38,-81.81 57.47,-80.59 63.87,-80.45 64.38,-82.76 64.97,-83.56 65.80,-84.14 66.84,-84.48">
        <request index="0"  response="000000000000" foes="000100010000" cont="0"/>
        <request index="1"  response="100000100000" foes="111100110000" cont="0"/>
        <request index="2"  response="100111100000" foes="110111110000" cont="1"/>
        <request index="3"  response="000010000000" foes="100010000000" cont="0"/>
        <request index="4"  response="000110000111" foes="100110000111" cont="0"/>
        <request index="5"  response="111110000110" foes="111110000110" cont="1"/>
        <request index="6"  response="000000000000" foes="010000000100" cont="0"/>
        <request index="7"  response="100000100000" foes="110000111100" cont="0"/>
        <request index="8"  response="100000100011" foes="110000110111" cont="1"/>
        <request index="9"  response="000000000010" foes="000000100010" cont="0"/>
        <request index="10" response="000111000110" foes="000111100110" cont="0"/>
        <request index="11" response="000110011110" foes="000110111110" cont="1"/>
    </junction>
    <junction id="J6" type="dead_end" x="-32.85" y="114.58" incLanes="E5_0" intLanes="" shape="-32.85,114.58 -29.65,114.61 -32.85,114.58"/>
    <junction id="J7" type="traffic_light" x="-30.44" y="-86.57" incLanes="-E11_0 -E13_0 -E12_0 E6_0" intLanes=":J7_0_0 :J7_1_0 :J7_12_0 :J7_3_0 :J7_4_0 :J7_13_0 :J7_6_0 :J7_7_0 :J7_14_0 :J7_9_0 :J7_10_0 :J7_15_0" shape="-23.13,-83.47 -23.21,-89.87 -25.43,-90.28 -26.21,-90.83 -26.76,-91.60 -27.08,-92.59 -27.18,-93.81 -33.58,-93.87 -34.06,-91.56 -34.64,-90.75 -35.45,-90.17 -36.49,-89.81 -37.76,-89.69 -37.69,-83.29 -35.47,-82.87 -34.70,-82.32 -34.16,-81.55 -33.84,-80.55 -33.75,-79.33 -27.35,-79.24 -26.85,-81.56 -26.26,-82.38 -25.44,-82.98 -24.40,-83.34">
        <request index="0"  response="000000000000" foes="000100010000" cont="0"/>
        <request index="1"  response="100000100000" foes="111100110000" cont="0"/>
        <request index="2"  response="100111100000" foes="110111110000" cont="1"/>
        <request index="3"  response="000010000000" foes="100010000000" cont="0"/>
        <request index="4"  response="000110000111" foes="100110000111" cont="0"/>
        <request index="5"  response="111110000110" foes="111110000110" cont="1"/>
        <request index="6"  response="000000000000" foes="010000000100" cont="0"/>
        <request index="7"  response="100000100000" foes="110000111100" cont="0"/>
        <request index="8"  response="100000100011" foes="110000110111" cont="1"/>
        <request index="9"  response="000000000010" foes="000000100010" cont="0"/>
        <request index="10" response="000111000110" foes="000111100110" cont="0"/>
        <request index="11" response="000110011110" foes="000110111110" cont="1"/>
    </junction>

    <junction id=":J1_14_0" type="internal" x="-28.26" y="11.23" incLanes=":J1_3_0 E0_0 E0_1" intLanes=":J1_5_0 :J1_6_0 :J1_7_0 :J1_8_0 :J1_8_1 :J1_12_0 :J1_13_0"/>
    <junction id=":J1_15_0" type="internal" x="-30.83" y="5.38" incLanes=":J1_6_0 -E5_0" intLanes=":J1_1_0 :J1_1_1 :J1_3_0 :J1_8_0 :J1_8_1 :J1_10_0 :J1_11_0 :J1_12_0"/>
    <junction id=":J1_16_0" type="internal" x="-35.42" y="9.41" incLanes=":J1_10_0 -E1_0 -E1_1" intLanes=":J1_0_0 :J1_1_0 :J1_1_1 :J1_5_0 :J1_6_0 :J1_12_0 :J1_13_0"/>
    <junction id=":J1_17_0" type="internal" x="-32.82" y="15.18" incLanes=":J1_13_0 -E6_0" intLanes=":J1_1_0 :J1_1_1 :J1_3_0 :J1_4_0 :J1_5_0 :J1_8_0 :J1_8_1 :J1_10_0"/>
    <junction id=":J2_14_0" type="internal" x="62.37" y="11.84" incLanes=":J2_3_0 E1_0 E1_1" intLanes=":J2_5_0 :J2_6_0 :J2_7_0 :J2_8_0 :J2_8_1 :J2_12_0 :J2_13_0"/>
    <junction id=":J2_15_0" type="internal" x="59.84" y="5.94" incLanes=":J2_6_0 -E3_0" intLanes=":J2_1_0 :J2_1_1 :J2_3_0 :J2_8_0 :J2_8_1 :J2_10_0 :J2_11_0 :J2_12_0"/>
    <junction id=":J2_16_0" type="internal" x="55.19" y="10.04" incLanes=":J2_10_0 -E2_0 -E2_1" intLanes=":J2_0_0 :J2_1_0 :J2_1_1 :J2_5_0 :J2_6_0 :J2_12_0 :J2_13_0"/>
    <junction id=":J2_17_0" type="internal" x="57.85" y="15.75" incLanes=":J2_13_0 -E4_0" intLanes=":J2_1_0 :J2_1_1 :J2_3_0 :J2_4_0 :J2_5_0 :J2_8_0 :J2_8_1 :J2_10_0"/>
    <junction id=":J5_12_0" type="internal" x="64.23" y="-86.77" incLanes=":J5_2_0 E11_0" intLanes=":J5_4_0 :J5_5_0 :J5_6_0 :J5_7_0 :J5_10_0 :J5_11_0"/>
    <junction id=":J5_13_0" type="internal" x="61.96" y="-91.12" incLanes=":J5_5_0 E4_0" intLanes=":J5_1_0 :J5_2_0 :J5_7_0 :J5_8_0 :J5_9_0 :J5_10_0"/>
    <junction id=":J5_14_0" type="internal" x="57.59" y="-88.71" incLanes=":J5_8_0 -E9_0" intLanes=":J5_0_0 :J5_1_0 :J5_4_0 :J5_5_0 :J5_10_0 :J5_11_0"/>
    <junction id=":J5_15_0" type="internal" x="59.84" y="-84.65" incLanes=":J5_11_0 -E14_0" intLanes=":J5_1_0 :J5_2_0 :J5_3_0 :J5_4_0 :J5_7_0 :J5_8_0"/>
    <junction id=":J7_12_0" type="internal" x="-27.18" y="-85.66" incLanes=":J7_2_0 -E12_0" intLanes=":J7_4_0 :J7_5_0 :J7_6_0 :J7_7_0 :J7_10_0 :J7_11_0"/>
    <junction id=":J7_13_0" type="internal" x="-29.47" y="-89.78" incLanes=":J7_5_0 E6_0" intLanes=":J7_1_0 :J7_2_0 :J7_7_0 :J7_8_0 :J7_9_0 :J7_10_0"/>
    <junction id=":J7_14_0" type="internal" x="-33.72" y="-87.50" incLanes=":J7_8_0 -E11_0" intLanes=":J7_0_0 :J7_1_0 :J7_4_0 :J7_5_0 :J7_10_0 :J7_11_0"/>
    <junction id=":J7_15_0" type="internal" x="-31.46" y="-83.32" incLanes=":J7_11_0 -E13_0" intLanes=":J7_1_0 :J7_2_0 :J7_3_0 :J7_4_0 :J7_7_0 :J7_8_0"/>

    <connection from="-E1" to="E5" fromLane="0" toLane="0" via=":J1_0_0" tl="J1" linkIndex="0" dir="r" state="O"/>
    <connection from="-E1" to="-E0" fromLane="0" toLane="0" via=":J1_1_0" tl="J1" linkIndex="1" dir="s" state="O"/>
    <connection from="-E1" to="-E0" fromLane="1" toLane="1" via=":J1_1_1" tl="J1" linkIndex="2" dir="s" state="O"/>