<?xml version="1.0" encoding="UTF-8"?>

<!-- generated on 2026-01-12T23:51:47.885957+05:45 by Eclipse SUMO netedit 1.25.0
-->

<additional xmlns:xsi="http://www.w3.org/2001/XMLSchema-instance" xsi:noNamespaceSchemaLocation="http://sumo.dlr.de/xsd/additional_file.xsd">
</additional>
